*SPEF "ieee 1481-1999"
*DESIGN "instrumented_adder"
*DATE "11:11:11 Fri 11 11, 1111"
*VENDOR "OpenRCX"
*PROGRAM "Parallel Extraction"
*VERSION "1.0"
*DESIGN_FLOW "NAME_SCOPE LOCAL" "PIN_CAP NONE"
*DIVIDER /
*DELIMITER :
*BUS_DELIMITER []
*T_UNIT 1 NS
*C_UNIT 1 PF
*R_UNIT 1 OHM
*L_UNIT 1 HENRY

*NAME_MAP
*1 chain
*2 clk
*3 outputs[0]
*4 outputs[1]
*5 outputs[2]
*6 outputs[3]
*7 reset
*10 _00_
*11 _01_
*12 _02_
*13 _03_
*14 _04_
*15 _05_
*16 _06_
*17 _07_
*18 _08_
*19 _09_
*20 _10_
*21 _11_
*22 buffers_in\[0\]
*23 buffers_in\[1\]
*24 buffers_in\[2\]
*25 buffers_in\[3\]
*26 buffers_in\[4\]
*27 buffers_in\[5\]
*28 buffers_in\[6\]
*29 buffers_in\[7\]
*30 buffers_in\[8\]
*31 buffers_in\[9\]
*32 clknet_0_clk
*33 clknet_1_0_0_clk
*34 clknet_1_1_0_clk
*35 net1
*36 FILLER_0_13
*37 FILLER_0_23
*38 FILLER_0_27
*39 FILLER_0_3
*40 FILLER_0_32
*41 FILLER_0_44
*42 FILLER_0_57
*43 FILLER_0_69
*44 FILLER_0_77
*45 FILLER_1_22
*46 FILLER_1_3
*47 FILLER_1_45
*48 FILLER_1_53
*49 FILLER_1_57
*50 FILLER_1_69
*51 FILLER_2_10
*52 FILLER_2_24
*53 FILLER_2_3
*54 FILLER_2_39
*55 FILLER_2_51
*56 FILLER_2_63
*57 FILLER_2_75
*58 FILLER_3_28
*59 FILLER_3_3
*60 FILLER_3_52
*61 FILLER_3_57
*62 FILLER_3_65
*63 FILLER_3_77
*64 FILLER_4_13
*65 FILLER_4_24
*66 FILLER_4_3
*67 FILLER_4_37
*68 FILLER_4_41
*69 FILLER_4_45
*70 FILLER_4_66
*71 FILLER_4_78
*72 FILLER_4_9
*73 FILLER_5_15
*74 FILLER_5_20
*75 FILLER_5_28
*76 FILLER_5_3
*77 FILLER_5_37
*78 FILLER_5_47
*79 FILLER_5_55
*80 FILLER_5_57
*81 FILLER_5_64
*82 FILLER_5_71
*83 FILLER_5_79
*84 FILLER_6_15
*85 FILLER_6_27
*86 FILLER_6_29
*87 FILLER_6_3
*88 FILLER_6_41
*89 FILLER_6_53
*90 FILLER_6_59
*91 FILLER_6_63
*92 FILLER_6_70
*93 FILLER_6_77
*94 FILLER_7_15
*95 FILLER_7_27
*96 FILLER_7_3
*97 FILLER_7_39
*98 FILLER_7_47
*99 FILLER_7_52
*100 FILLER_7_57
*101 FILLER_7_64
*102 FILLER_7_71
*103 FILLER_7_79
*104 FILLER_8_15
*105 FILLER_8_27
*106 FILLER_8_29
*107 FILLER_8_3
*108 FILLER_8_41
*109 FILLER_8_53
*110 FILLER_8_64
*111 FILLER_8_71
*112 FILLER_8_79
*113 FILLER_9_15
*114 FILLER_9_27
*115 FILLER_9_29
*116 FILLER_9_3
*117 FILLER_9_41
*118 FILLER_9_53
*119 FILLER_9_57
*120 FILLER_9_65
*121 FILLER_9_71
*122 FILLER_9_79
*123 PHY_0
*124 PHY_1
*125 PHY_10
*126 PHY_11
*127 PHY_12
*128 PHY_13
*129 PHY_14
*130 PHY_15
*131 PHY_16
*132 PHY_17
*133 PHY_18
*134 PHY_19
*135 PHY_2
*136 PHY_3
*137 PHY_4
*138 PHY_5
*139 PHY_6
*140 PHY_7
*141 PHY_8
*142 PHY_9
*143 TAP_20
*144 TAP_21
*145 TAP_22
*146 TAP_23
*147 TAP_24
*148 TAP_25
*149 TAP_26
*150 TAP_27
*151 TAP_28
*152 TAP_29
*153 TAP_30
*154 TAP_31
*155 _12_
*156 _13_
*157 _14_
*158 _15_
*159 _16_
*160 _17_
*161 _18_
*162 _19_
*163 _20_
*164 _21_
*165 _22_
*166 _23_
*167 _24_
*168 _25_
*169 _26_
*170 _27_
*171 _28_
*172 buffers\[0\]
*173 buffers\[1\]
*174 buffers\[2\]
*175 buffers\[3\]
*176 buffers\[4\]
*177 buffers\[5\]
*178 buffers\[6\]
*179 buffers\[7\]
*180 buffers\[8\]
*181 buffers\[9\]
*182 clkbuf_0_clk
*183 clkbuf_1_0_0_clk
*184 clkbuf_1_1_0_clk
*185 input1

*PORTS
chain O
clk I
outputs[0] O
outputs[1] O
outputs[2] O
outputs[3] O
reset I

*D_NET *1 0.0026928
*CONN
*P chain O
*I *155:B I *D sky130_fd_sc_hd__nor2_1
*I *181:Y O *D sky130_fd_sc_hd__inv_2
*CAP
1 chain 0.000718291
2 *155:B 0
3 *181:Y 0.000323839
4 *1:13 0.00104213
5 chain outputs[3] 0
6 chain *172:A 0.000219249
7 chain *174:A 0
8 *1:13 *155:A 0.000263906
9 *1:13 *172:A 2.29454e-05
10 *1:13 *179:A 3.31733e-05
11 *1:13 *6:17 6.92705e-05
*RES
1 *181:Y *1:13 26.8194 
2 *1:13 *155:B 9.24915 
3 *1:13 chain 18.9044 
*END

*D_NET *2 0.00226956
*CONN
*P clk I
*I *182:A I *D sky130_fd_sc_hd__clkbuf_16
*CAP
1 clk 0.000947226
2 *182:A 0.000947226
3 *182:A *168:D 0
4 *182:A *184:A 0.000375107
*RES
1 clk *182:A 38.4406 
*END

*D_NET *3 0.00616649
*CONN
*P outputs[0] O
*I *165:A1 I *D sky130_fd_sc_hd__a31o_1
*I *164:A1 I *D sky130_fd_sc_hd__a41o_1
*I *156:A I *D sky130_fd_sc_hd__dlymetal6s2s_1
*I *168:Q O *D sky130_fd_sc_hd__dfxtp_4
*CAP
1 outputs[0] 0.000806967
2 *165:A1 0
3 *164:A1 0.000135313
4 *156:A 0.000222947
5 *168:Q 0.000375304
6 *3:26 0.000330163
7 *3:23 0.00117363
8 *3:8 0.000770066
9 outputs[0] *161:A1 5.56367e-05
10 outputs[0] *5:20 6.94439e-05
11 *156:A *159:A2 0.000118796
12 *156:A *159:B1 0.000133331
13 *156:A *160:B1 0.000164929
14 *156:A *170:CLK 0
15 *156:A *14:7 7.92757e-06
16 *164:A1 *165:A3 7.41547e-05
17 *164:A1 *166:A_N 0
18 *164:A1 *35:29 6.50727e-05
19 *3:8 *159:B1 7.77309e-06
20 *3:8 *160:B1 0.000163982
21 *3:8 *169:CLK 6.92705e-05
22 *3:8 *4:20 8.63005e-06
23 *3:8 *14:8 1.55462e-05
24 *3:8 *14:12 2.652e-05
25 *3:8 *14:34 5.85767e-05
26 *3:23 *159:B1 8.50452e-05
27 *3:23 *161:A1 0.000184414
28 *3:23 *5:8 0.000153225
29 *3:23 *5:20 0.000172691
30 *3:23 *14:34 0.000315191
31 *3:26 *161:A1 2.16355e-05
32 *3:26 *161:A2 3.82228e-05
33 *3:26 *164:A4 0.000111722
34 *3:26 *165:A2 0.000220275
35 *3:26 *6:17 1.00846e-05
*RES
1 *168:Q *3:8 21.2932 
2 *3:8 *156:A 27.8311 
3 *3:8 *3:23 8.89128 
4 *3:23 *3:26 11.324 
5 *3:26 *164:A1 22.0503 
6 *3:26 *165:A1 9.24915 
7 *3:23 outputs[0] 7.7991 
*END

*D_NET *4 0.00494486
*CONN
*P outputs[1] O
*I *164:A2 I *D sky130_fd_sc_hd__a41o_1
*I *158:A I *D sky130_fd_sc_hd__dlymetal6s2s_1
*I *169:Q O *D sky130_fd_sc_hd__dfxtp_2
*CAP
1 outputs[1] 0.000943686
2 *164:A2 0.000235988
3 *158:A 0
4 *169:Q 0
5 *4:20 0.00116574
6 *4:4 0.00187344
7 *164:A2 *183:A 8.8567e-05
8 *164:A2 *5:38 7.50872e-05
9 *164:A2 *15:7 0.000116755
10 *164:A2 *15:8 0
11 *164:A2 *15:32 0
12 *4:20 *160:A2 9.77871e-05
13 *4:20 *169:CLK 0.000105064
14 *4:20 *169:D 3.18826e-06
15 *4:20 *183:A 0
16 *4:20 *15:7 0.000216467
17 *4:20 *15:8 1.44611e-05
18 *3:8 *4:20 8.63005e-06
*RES
1 *169:Q *4:4 9.24915 
2 *4:4 outputs[1] 27.4023 
3 *4:4 *4:20 26.417 
4 *4:20 *158:A 9.24915 
5 *4:20 *164:A2 25.5117 
*END

*D_NET *5 0.00591285
*CONN
*P outputs[2] O
*I *165:A3 I *D sky130_fd_sc_hd__a31o_1
*I *164:A3 I *D sky130_fd_sc_hd__a41o_1
*I *161:B1 I *D sky130_fd_sc_hd__a21oi_1
*I *162:A3 I *D sky130_fd_sc_hd__a31o_1
*I *170:Q O *D sky130_fd_sc_hd__dfxtp_4
*CAP
1 outputs[2] 0.0012906
2 *165:A3 0.000263347
3 *164:A3 0
4 *161:B1 0
5 *162:A3 0
6 *170:Q 0
7 *5:38 0.000588719
8 *5:20 0.00158847
9 *5:8 0.000563649
10 *5:4 0.000591149
11 outputs[2] *163:A 5.82992e-05
12 *165:A3 *161:A1 0
13 *165:A3 *164:A4 0.000176017
14 *165:A3 *166:A_N 3.67528e-06
15 *165:A3 *15:45 0
16 *5:8 *159:B1 0.000156823
17 *5:20 *159:B1 2.24484e-05
18 *5:20 *161:A1 6.50586e-05
19 *5:20 *163:A 0
20 *5:38 *15:32 0
21 *5:38 *15:45 0
22 outputs[0] *5:20 6.94439e-05
23 *164:A1 *165:A3 7.41547e-05
24 *164:A2 *5:38 7.50872e-05
25 *3:23 *5:8 0.000153225
26 *3:23 *5:20 0.000172691
*RES
1 *170:Q *5:4 9.24915 
2 *5:4 *5:8 10.1043 
3 *5:8 *162:A3 13.7491 
4 *5:8 *5:20 11.2348 
5 *5:20 outputs[2] 37.2262 
6 *5:20 *161:B1 9.24915 
7 *5:4 *5:38 10.2437 
8 *5:38 *164:A3 13.7491 
9 *5:38 *165:A3 21.0771 
*END

*D_NET *6 0.00567603
*CONN
*P outputs[3] O
*I *165:B1 I *D sky130_fd_sc_hd__a31o_1
*I *164:A4 I *D sky130_fd_sc_hd__a41o_1
*I *171:Q O *D sky130_fd_sc_hd__dfxtp_2
*CAP
1 outputs[3] 0.000788499
2 *165:B1 0
3 *164:A4 0.000163875
4 *171:Q 0.000151477
5 *6:17 0.000986381
6 *6:8 0.00176248
7 outputs[3] *155:A 6.14273e-05
8 outputs[3] *173:A 0
9 outputs[3] *174:A 0.000153453
10 outputs[3] *175:A 0
11 outputs[3] *176:A 2.3939e-05
12 outputs[3] *177:A 0.000337624
13 outputs[3] *179:A 6.28407e-05
14 *164:A4 *161:A1 0
15 *164:A4 *15:45 0
16 *6:8 *155:A 8.07794e-05
17 *6:8 *173:A 0
18 *6:17 *165:A2 2.86013e-06
19 *6:17 *166:A_N 9.70405e-05
20 *6:17 *166:B 5.31287e-05
21 *6:17 *181:A 0.000583127
22 chain outputs[3] 0
23 *165:A3 *164:A4 0.000176017
24 *1:13 *6:17 6.92705e-05
25 *3:26 *164:A4 0.000111722
26 *3:26 *6:17 1.00846e-05
*RES
1 *171:Q *6:8 17.5503 
2 *6:8 *6:17 25.2615 
3 *6:17 *164:A4 23.0201 
4 *6:17 *165:B1 9.24915 
5 *6:8 outputs[3] 24.793 
*END

*D_NET *7 0.00128931
*CONN
*P reset I
*I *185:A I *D sky130_fd_sc_hd__clkbuf_2
*CAP
1 reset 0.000644653
2 *185:A 0.000644653
*RES
1 reset *185:A 28.1049 
*END

*D_NET *10 0.00104889
*CONN
*I *168:D I *D sky130_fd_sc_hd__dfxtp_4
*I *157:Y O *D sky130_fd_sc_hd__nor2_1
*CAP
1 *168:D 0.000430021
2 *157:Y 0.000430021
3 *168:D *157:A 4.04995e-05
4 *168:D *157:B 4.17531e-06
5 *168:D *183:A 0.000144176
6 *182:A *168:D 0
*RES
1 *157:Y *168:D 36.7384 
*END

*D_NET *11 0.000451188
*CONN
*I *169:D I *D sky130_fd_sc_hd__dfxtp_2
*I *160:X O *D sky130_fd_sc_hd__o21a_1
*CAP
1 *169:D 0.000135771
2 *160:X 0.000135771
3 *169:D *160:B1 0.000144531
4 *169:D *169:CLK 1.87611e-05
5 *169:D *183:A 1.31657e-05
6 *169:D *33:6 0
7 *4:20 *169:D 3.18826e-06
*RES
1 *160:X *169:D 31.1072 
*END

*D_NET *12 0.000313645
*CONN
*I *170:D I *D sky130_fd_sc_hd__dfxtp_4
*I *163:Y O *D sky130_fd_sc_hd__nor2_1
*CAP
1 *170:D 0.000154298
2 *163:Y 0.000154298
3 *170:D *163:B 5.04829e-06
*RES
1 *163:Y *170:D 30.4689 
*END

*D_NET *13 0.000639218
*CONN
*I *171:D I *D sky130_fd_sc_hd__dfxtp_2
*I *167:X O *D sky130_fd_sc_hd__clkbuf_1
*CAP
1 *171:D 0.00016712
2 *167:X 0.00016712
3 *171:D *167:A 0.000118796
4 *171:D *35:21 0.000186182
*RES
1 *167:X *171:D 23.4958 
*END

*D_NET *14 0.00551483
*CONN
*I *161:A1 I *D sky130_fd_sc_hd__a21oi_1
*I *162:A1 I *D sky130_fd_sc_hd__a31o_1
*I *159:A1 I *D sky130_fd_sc_hd__a21oi_1
*I *157:B I *D sky130_fd_sc_hd__nor2_1
*I *160:A1 I *D sky130_fd_sc_hd__o21a_1
*I *156:X O *D sky130_fd_sc_hd__dlymetal6s2s_1
*CAP
1 *161:A1 0.000178293
2 *162:A1 0
3 *159:A1 0.000476623
4 *157:B 9.11179e-05
5 *160:A1 0
6 *156:X 6.70364e-05
7 *14:34 0.000323218
8 *14:12 0.000260194
9 *14:8 0.000674207
10 *14:7 0.000240469
11 *157:B *160:A2 1.43983e-05
12 *157:B *183:A 0.000379987
13 *159:A1 *159:A2 0.000780538
14 *161:A1 *161:A2 3.99086e-06
15 *161:A1 *15:45 0.000148129
16 *14:7 *159:A2 0.000264586
17 *14:7 *159:B1 6.92705e-05
18 *14:7 *160:B1 1.92172e-05
19 *14:8 *160:A2 2.95757e-05
20 *14:8 *15:8 2.09495e-05
21 *14:12 *160:A2 0.000259471
22 *14:12 *160:B1 7.97533e-05
23 *14:34 *15:8 3.31882e-05
24 *14:34 *15:32 0.000321376
25 *14:34 *15:45 2.4562e-05
26 outputs[0] *161:A1 5.56367e-05
27 *156:A *14:7 7.92757e-06
28 *164:A4 *161:A1 0
29 *165:A3 *161:A1 0
30 *168:D *157:B 4.17531e-06
31 *3:8 *14:8 1.55462e-05
32 *3:8 *14:12 2.652e-05
33 *3:8 *14:34 5.85767e-05
34 *3:23 *161:A1 0.000184414
35 *3:23 *14:34 0.000315191
36 *3:26 *161:A1 2.16355e-05
37 *5:20 *161:A1 6.50586e-05
*RES
1 *156:X *14:7 16.691 
2 *14:7 *14:8 1.00149 
3 *14:8 *14:12 10.4845 
4 *14:12 *160:A1 9.24915 
5 *14:12 *157:B 13.3002 
6 *14:8 *159:A1 22.237 
7 *14:7 *14:34 7.71881 
8 *14:34 *162:A1 13.7491 
9 *14:34 *161:A1 19.9053 
*END

*D_NET *15 0.00608196
*CONN
*I *165:A2 I *D sky130_fd_sc_hd__a31o_1
*I *161:A2 I *D sky130_fd_sc_hd__a21oi_1
*I *162:A2 I *D sky130_fd_sc_hd__a31o_1
*I *159:A2 I *D sky130_fd_sc_hd__a21oi_1
*I *160:A2 I *D sky130_fd_sc_hd__o21a_1
*I *158:X O *D sky130_fd_sc_hd__dlymetal6s2s_1
*CAP
1 *165:A2 0.00041052
2 *161:A2 0.000181442
3 *162:A2 8.90075e-05
4 *159:A2 0.000185596
5 *160:A2 0.000218722
6 *158:X 0.000174837
7 *15:45 0.000701512
8 *15:32 0.000396964
9 *15:8 0.000431925
10 *15:7 0.000400848
11 *159:A2 *159:B1 0.000132818
12 *160:A2 *183:A 1.00937e-05
13 *162:A2 *159:B1 1.82679e-05
14 *162:A2 *163:B 3.01683e-06
15 *156:A *159:A2 0.000118796
16 *157:B *160:A2 1.43983e-05
17 *159:A1 *159:A2 0.000780538
18 *161:A1 *161:A2 3.99086e-06
19 *161:A1 *15:45 0.000148129
20 *164:A2 *15:7 0.000116755
21 *164:A2 *15:8 0
22 *164:A2 *15:32 0
23 *164:A4 *15:45 0
24 *165:A3 *15:45 0
25 *3:26 *161:A2 3.82228e-05
26 *3:26 *165:A2 0.000220275
27 *4:20 *160:A2 9.77871e-05
28 *4:20 *15:7 0.000216467
29 *4:20 *15:8 1.44611e-05
30 *5:38 *15:32 0
31 *5:38 *15:45 0
32 *6:17 *165:A2 2.86013e-06
33 *14:7 *159:A2 0.000264586
34 *14:8 *160:A2 2.95757e-05
35 *14:8 *15:8 2.09495e-05
36 *14:12 *160:A2 0.000259471
37 *14:34 *15:8 3.31882e-05
38 *14:34 *15:32 0.000321376
39 *14:34 *15:45 2.4562e-05
*RES
1 *158:X *15:7 18.9094 
2 *15:7 *15:8 1.00149 
3 *15:8 *160:A2 20.1812 
4 *15:8 *159:A2 23.9249 
5 *15:7 *15:32 6.8883 
6 *15:32 *162:A2 15.6059 
7 *15:32 *15:45 7.57775 
8 *15:45 *161:A2 12.4803 
9 *15:45 *165:A2 16.5072 
*END

*D_NET *16 0.00184315
*CONN
*I *160:B1 I *D sky130_fd_sc_hd__o21a_1
*I *159:Y O *D sky130_fd_sc_hd__a21oi_1
*CAP
1 *160:B1 0.000385281
2 *159:Y 0.000385281
3 *160:B1 *159:B1 0.000500173
4 *160:B1 *170:CLK 0
5 *160:B1 *33:6 0
6 *156:A *160:B1 0.000164929
7 *169:D *160:B1 0.000144531
8 *3:8 *160:B1 0.000163982
9 *14:7 *160:B1 1.92172e-05
10 *14:12 *160:B1 7.97533e-05
*RES
1 *159:Y *160:B1 40.8586 
*END

*D_NET *17 0.00072558
*CONN
*I *163:A I *D sky130_fd_sc_hd__nor2_1
*I *161:Y O *D sky130_fd_sc_hd__a21oi_1
*CAP
1 *163:A 0.000333641
2 *161:Y 0.000333641
3 *163:A *159:B1 0
4 outputs[2] *163:A 5.82992e-05
5 *5:20 *163:A 0
*RES
1 *161:Y *163:A 33.6572 
*END

*D_NET *18 0.000294781
*CONN
*I *163:B I *D sky130_fd_sc_hd__nor2_1
*I *162:X O *D sky130_fd_sc_hd__a31o_1
*CAP
1 *163:B 0.000143358
2 *162:X 0.000143358
3 *163:B *162:B1 0
4 *162:A2 *163:B 3.01683e-06
5 *170:D *163:B 5.04829e-06
*RES
1 *162:X *163:B 22.0188 
*END

*D_NET *19 0.000698715
*CONN
*I *166:A_N I *D sky130_fd_sc_hd__and2b_1
*I *164:X O *D sky130_fd_sc_hd__a41o_1
*CAP
1 *166:A_N 0.000172847
2 *164:X 0.000172847
3 *166:A_N *166:B 0.000220809
4 *166:A_N *167:A 0
5 *166:A_N *35:21 3.14978e-05
6 *164:A1 *166:A_N 0
7 *165:A3 *166:A_N 3.67528e-06
8 *6:17 *166:A_N 9.70405e-05
*RES
1 *164:X *166:A_N 32.8561 
*END

*D_NET *20 0.000596621
*CONN
*I *166:B I *D sky130_fd_sc_hd__and2b_1
*I *165:X O *D sky130_fd_sc_hd__a31o_1
*CAP
1 *166:B 0.000161342
2 *165:X 0.000161342
3 *166:A_N *166:B 0.000220809
4 *6:17 *166:B 5.31287e-05
*RES
1 *165:X *166:B 23.1039 
*END

*D_NET *21 0.000665565
*CONN
*I *167:A I *D sky130_fd_sc_hd__clkbuf_1
*I *166:X O *D sky130_fd_sc_hd__and2b_1
*CAP
1 *167:A 0.000164268
2 *166:X 0.000164268
3 *167:A *171:CLK 1.77537e-06
4 *167:A *35:21 0.000216458
5 *166:A_N *167:A 0
6 *171:D *167:A 0.000118796
*RES
1 *166:X *167:A 32.548 
*END

*D_NET *22 0.000639598
*CONN
*I *172:A I *D sky130_fd_sc_hd__inv_2
*I *155:Y O *D sky130_fd_sc_hd__nor2_1
*CAP
1 *172:A 8.97579e-05
2 *155:Y 8.97579e-05
3 *172:A *173:A 0.000217887
4 chain *172:A 0.000219249
5 *1:13 *172:A 2.29454e-05
*RES
1 *155:Y *172:A 22.5734 
*END

*D_NET *23 0.00078108
*CONN
*I *173:A I *D sky130_fd_sc_hd__inv_2
*I *172:Y O *D sky130_fd_sc_hd__inv_2
*CAP
1 *173:A 0.000272606
2 *172:Y 0.000272606
3 *173:A *174:A 1.79807e-05
4 outputs[3] *173:A 0
5 *172:A *173:A 0.000217887
6 *6:8 *173:A 0
*RES
1 *172:Y *173:A 32.6874 
*END

*D_NET *24 0.000817605
*CONN
*I *174:A I *D sky130_fd_sc_hd__inv_2
*I *173:Y O *D sky130_fd_sc_hd__inv_2
*CAP
1 *174:A 0.000323086
2 *173:Y 0.000323086
3 chain *174:A 0
4 outputs[3] *174:A 0.000153453
5 *173:A *174:A 1.79807e-05
*RES
1 *173:Y *174:A 35.4842 
*END

*D_NET *25 0.000282225
*CONN
*I *175:A I *D sky130_fd_sc_hd__inv_2
*I *174:Y O *D sky130_fd_sc_hd__inv_2
*CAP
1 *175:A 0.000138588
2 *174:Y 0.000138588
3 *175:A *176:A 5.04829e-06
4 outputs[3] *175:A 0
*RES
1 *174:Y *175:A 30.4689 
*END

*D_NET *26 0.000837064
*CONN
*I *176:A I *D sky130_fd_sc_hd__inv_2
*I *175:Y O *D sky130_fd_sc_hd__inv_2
*CAP
1 *176:A 0.000305461
2 *175:Y 0.000305461
3 *176:A *177:A 7.14746e-05
4 *176:A *179:A 0.00012568
5 outputs[3] *176:A 2.3939e-05
6 *175:A *176:A 5.04829e-06
*RES
1 *175:Y *176:A 33.242 
*END

*D_NET *27 0.00123969
*CONN
*I *177:A I *D sky130_fd_sc_hd__inv_2
*I *176:Y O *D sky130_fd_sc_hd__inv_2
*CAP
1 *177:A 0.000313531
2 *176:Y 0.000313531
3 *177:A *178:A 0.000203527
4 outputs[3] *177:A 0.000337624
5 *176:A *177:A 7.14746e-05
*RES
1 *176:Y *177:A 37.148 
*END

*D_NET *28 0.000835137
*CONN
*I *178:A I *D sky130_fd_sc_hd__inv_2
*I *177:Y O *D sky130_fd_sc_hd__inv_2
*CAP
1 *178:A 0.000315805
2 *177:Y 0.000315805
3 *177:A *178:A 0.000203527
*RES
1 *177:Y *178:A 33.6572 
*END

*D_NET *29 0.000688996
*CONN
*I *179:A I *D sky130_fd_sc_hd__inv_2
*I *178:Y O *D sky130_fd_sc_hd__inv_2
*CAP
1 *179:A 0.000151676
2 *178:Y 0.000151676
3 *179:A *155:A 1.07248e-05
4 *179:A *180:A 0.000153225
5 outputs[3] *179:A 6.28407e-05
6 *176:A *179:A 0.00012568
7 *1:13 *179:A 3.31733e-05
*RES
1 *178:Y *179:A 33.4828 
*END

*D_NET *30 0.00079628
*CONN
*I *180:A I *D sky130_fd_sc_hd__inv_2
*I *179:Y O *D sky130_fd_sc_hd__inv_2
*CAP
1 *180:A 0.000321527
2 *179:Y 0.000321527
3 *179:A *180:A 0.000153225
*RES
1 *179:Y *180:A 35.8756 
*END

*D_NET *31 0.0013553
*CONN
*I *181:A I *D sky130_fd_sc_hd__inv_2
*I *180:Y O *D sky130_fd_sc_hd__inv_2
*CAP
1 *181:A 0.000386088
2 *180:Y 0.000386088
3 *6:17 *181:A 0.000583127
*RES
1 *180:Y *181:A 39.337 
*END

*D_NET *32 0.00458094
*CONN
*I *184:A I *D sky130_fd_sc_hd__clkbuf_2
*I *183:A I *D sky130_fd_sc_hd__clkbuf_2
*I *182:X O *D sky130_fd_sc_hd__clkbuf_16
*CAP
1 *184:A 0.00055814
2 *183:A 0.000849583
3 *182:X 0
4 *32:4 0.00140772
5 *183:A *157:A 0.000118166
6 *184:A *34:7 0.000636235
7 *157:B *183:A 0.000379987
8 *160:A2 *183:A 1.00937e-05
9 *164:A2 *183:A 8.8567e-05
10 *168:D *183:A 0.000144176
11 *169:D *183:A 1.31657e-05
12 *182:A *184:A 0.000375107
13 *4:20 *183:A 0
*RES
1 *182:X *32:4 9.24915 
2 *32:4 *183:A 41.1715 
3 *32:4 *184:A 26.6348 
*END

*D_NET *33 0.00163272
*CONN
*I *170:CLK I *D sky130_fd_sc_hd__dfxtp_4
*I *169:CLK I *D sky130_fd_sc_hd__dfxtp_2
*I *183:X O *D sky130_fd_sc_hd__clkbuf_2
*CAP
1 *170:CLK 0.000290461
2 *169:CLK 0.000281199
3 *183:X 0.00014815
4 *33:6 0.000719811
5 *170:CLK *159:B1 0
6 *156:A *170:CLK 0
7 *160:B1 *170:CLK 0
8 *160:B1 *33:6 0
9 *169:D *169:CLK 1.87611e-05
10 *169:D *33:6 0
11 *3:8 *169:CLK 6.92705e-05
12 *4:20 *169:CLK 0.000105064
*RES
1 *183:X *33:6 17.2421 
2 *33:6 *169:CLK 21.1519 
3 *33:6 *170:CLK 19.7337 
*END

*D_NET *34 0.00217782
*CONN
*I *171:CLK I *D sky130_fd_sc_hd__dfxtp_2
*I *168:CLK I *D sky130_fd_sc_hd__dfxtp_4
*I *184:X O *D sky130_fd_sc_hd__clkbuf_2
*CAP
1 *171:CLK 0.000175761
2 *168:CLK 0.000381319
3 *184:X 0.000212828
4 *34:7 0.000769907
5 *167:A *171:CLK 1.77537e-06
6 *184:A *34:7 0.000636235
*RES
1 *184:X *34:7 20.5732 
2 *34:7 *168:CLK 22.6755 
3 *34:7 *171:CLK 17.6574 
*END

*D_NET *35 0.00866875
*CONN
*I *155:A I *D sky130_fd_sc_hd__nor2_1
*I *162:B1 I *D sky130_fd_sc_hd__a31o_1
*I *159:B1 I *D sky130_fd_sc_hd__a21oi_1
*I *164:B1 I *D sky130_fd_sc_hd__a41o_1
*I *157:A I *D sky130_fd_sc_hd__nor2_1
*I *185:X O *D sky130_fd_sc_hd__clkbuf_2
*CAP
1 *155:A 0.000292123
2 *162:B1 2.06324e-05
3 *159:B1 0.000445115
4 *164:B1 0
5 *157:A 0.000724469
6 *185:X 0.000238484
7 *35:29 0.000803259
8 *35:21 0.000952935
9 *35:14 0.00146783
10 *35:5 0.00152324
11 outputs[3] *155:A 6.14273e-05
12 *156:A *159:B1 0.000133331
13 *159:A2 *159:B1 0.000132818
14 *160:B1 *159:B1 0.000500173
15 *162:A2 *159:B1 1.82679e-05
16 *163:A *159:B1 0
17 *163:B *162:B1 0
18 *164:A1 *35:29 6.50727e-05
19 *166:A_N *35:21 3.14978e-05
20 *167:A *35:21 0.000216458
21 *168:D *157:A 4.04995e-05
22 *170:CLK *159:B1 0
23 *171:D *35:21 0.000186182
24 *179:A *155:A 1.07248e-05
25 *183:A *157:A 0.000118166
26 *1:13 *155:A 0.000263906
27 *3:8 *159:B1 7.77309e-06
28 *3:23 *159:B1 8.50452e-05
29 *5:8 *159:B1 0.000156823
30 *5:20 *159:B1 2.24484e-05
31 *6:8 *155:A 8.07794e-05
32 *14:7 *159:B1 6.92705e-05
*RES
1 *185:X *35:5 14.964 
2 *35:5 *157:A 27.1653 
3 *35:5 *35:14 17.9591 
4 *35:14 *35:21 21.4998 
5 *35:21 *164:B1 9.24915 
6 *35:21 *35:29 7.40275 
7 *35:29 *159:B1 33.6056 
8 *35:29 *162:B1 9.82786 
9 *35:14 *155:A 22.9514 
*END
