* NGSPICE file created from instrumented_adder.ext - technology: sky130A

* Black-box entry subcircuit for sky130_fd_sc_hd__fill_2 abstract view
.subckt sky130_fd_sc_hd__fill_2 VGND VNB VPB VPWR
.ends

* Black-box entry subcircuit for sky130_fd_sc_hd__decap_4 abstract view
.subckt sky130_fd_sc_hd__decap_4 VGND VNB VPB VPWR
.ends

* Black-box entry subcircuit for sky130_fd_sc_hd__decap_8 abstract view
.subckt sky130_fd_sc_hd__decap_8 VGND VNB VPB VPWR
.ends

* Black-box entry subcircuit for sky130_fd_sc_hd__inv_2 abstract view
.subckt sky130_fd_sc_hd__inv_2 A VGND VNB VPB VPWR Y
.ends

* Black-box entry subcircuit for sky130_fd_sc_hd__decap_6 abstract view
.subckt sky130_fd_sc_hd__decap_6 VGND VNB VPB VPWR
.ends

* Black-box entry subcircuit for sky130_fd_sc_hd__nor2_2 abstract view
.subckt sky130_fd_sc_hd__nor2_2 A B VGND VNB VPB VPWR Y
.ends

* Black-box entry subcircuit for sky130_fd_sc_hd__decap_12 abstract view
.subckt sky130_fd_sc_hd__decap_12 VGND VNB VPB VPWR
.ends

* Black-box entry subcircuit for sky130_fd_sc_hd__and3_1 abstract view
.subckt sky130_fd_sc_hd__and3_1 A B C VGND VNB VPB VPWR X
.ends

* Black-box entry subcircuit for sky130_fd_sc_hd__tapvpwrvgnd_1 abstract view
.subckt sky130_fd_sc_hd__tapvpwrvgnd_1 VGND VPWR
.ends

* Black-box entry subcircuit for sky130_fd_sc_hd__nor2_4 abstract view
.subckt sky130_fd_sc_hd__nor2_4 A B VGND VNB VPB VPWR Y
.ends

* Black-box entry subcircuit for sky130_fd_sc_hd__buf_2 abstract view
.subckt sky130_fd_sc_hd__buf_2 A VGND VNB VPB VPWR X
.ends

* Black-box entry subcircuit for sky130_fd_sc_hd__decap_3 abstract view
.subckt sky130_fd_sc_hd__decap_3 VGND VNB VPB VPWR
.ends

* Black-box entry subcircuit for sky130_fd_sc_hd__dfrtp_4 abstract view
.subckt sky130_fd_sc_hd__dfrtp_4 CLK D RESET_B VGND VNB VPB VPWR Q
.ends

* Black-box entry subcircuit for sky130_fd_sc_hd__fill_1 abstract view
.subckt sky130_fd_sc_hd__fill_1 VGND VNB VPB VPWR
.ends

* Black-box entry subcircuit for sky130_fd_sc_hd__a21oi_1 abstract view
.subckt sky130_fd_sc_hd__a21oi_1 A1 A2 B1 VGND VNB VPB VPWR Y
.ends

* Black-box entry subcircuit for sky130_fd_sc_hd__and2_1 abstract view
.subckt sky130_fd_sc_hd__and2_1 A B VGND VNB VPB VPWR X
.ends

* Black-box entry subcircuit for sky130_fd_sc_hd__nand2_1 abstract view
.subckt sky130_fd_sc_hd__nand2_1 A B VGND VNB VPB VPWR Y
.ends

* Black-box entry subcircuit for sky130_fd_sc_hd__xor2_1 abstract view
.subckt sky130_fd_sc_hd__xor2_1 A B VGND VNB VPB VPWR X
.ends

* Black-box entry subcircuit for sky130_fd_sc_hd__or2_1 abstract view
.subckt sky130_fd_sc_hd__or2_1 A B VGND VNB VPB VPWR X
.ends

* Black-box entry subcircuit for sky130_fd_sc_hd__dlymetal6s2s_1 abstract view
.subckt sky130_fd_sc_hd__dlymetal6s2s_1 A VGND VNB VPB VPWR X
.ends

* Black-box entry subcircuit for sky130_fd_sc_hd__xnor2_1 abstract view
.subckt sky130_fd_sc_hd__xnor2_1 A B VGND VNB VPB VPWR Y
.ends

* Black-box entry subcircuit for sky130_fd_sc_hd__nand2_4 abstract view
.subckt sky130_fd_sc_hd__nand2_4 A B VGND VNB VPB VPWR Y
.ends

* Black-box entry subcircuit for sky130_fd_sc_hd__o21bai_1 abstract view
.subckt sky130_fd_sc_hd__o21bai_1 A1 A2 B1_N VGND VNB VPB VPWR Y
.ends

* Black-box entry subcircuit for sky130_fd_sc_hd__nor2_1 abstract view
.subckt sky130_fd_sc_hd__nor2_1 A B VGND VNB VPB VPWR Y
.ends

* Black-box entry subcircuit for sky130_fd_sc_hd__clkbuf_1 abstract view
.subckt sky130_fd_sc_hd__clkbuf_1 A VGND VNB VPB VPWR X
.ends

* Black-box entry subcircuit for sky130_fd_sc_hd__a31o_1 abstract view
.subckt sky130_fd_sc_hd__a31o_1 A1 A2 A3 B1 VGND VNB VPB VPWR X
.ends

* Black-box entry subcircuit for sky130_fd_sc_hd__or4bb_1 abstract view
.subckt sky130_fd_sc_hd__or4bb_1 A B C_N D_N VGND VNB VPB VPWR X
.ends

* Black-box entry subcircuit for sky130_fd_sc_hd__clkbuf_2 abstract view
.subckt sky130_fd_sc_hd__clkbuf_2 A VGND VNB VPB VPWR X
.ends

* Black-box entry subcircuit for sky130_fd_sc_hd__a21bo_1 abstract view
.subckt sky130_fd_sc_hd__a21bo_1 A1 A2 B1_N VGND VNB VPB VPWR X
.ends

* Black-box entry subcircuit for sky130_fd_sc_hd__nor3_1 abstract view
.subckt sky130_fd_sc_hd__nor3_1 A B C VGND VNB VPB VPWR Y
.ends

* Black-box entry subcircuit for sky130_fd_sc_hd__clkbuf_16 abstract view
.subckt sky130_fd_sc_hd__clkbuf_16 A VGND VNB VPB VPWR X
.ends

* Black-box entry subcircuit for sky130_fd_sc_hd__o21ai_1 abstract view
.subckt sky130_fd_sc_hd__o21ai_1 A1 A2 B1 VGND VNB VPB VPWR Y
.ends

* Black-box entry subcircuit for sky130_fd_sc_hd__xnor2_4 abstract view
.subckt sky130_fd_sc_hd__xnor2_4 A B VGND VNB VPB VPWR Y
.ends

* Black-box entry subcircuit for sky130_fd_sc_hd__or3_1 abstract view
.subckt sky130_fd_sc_hd__or3_1 A B C VGND VNB VPB VPWR X
.ends

* Black-box entry subcircuit for sky130_fd_sc_hd__nand3b_1 abstract view
.subckt sky130_fd_sc_hd__nand3b_1 A_N B C VGND VNB VPB VPWR Y
.ends

* Black-box entry subcircuit for sky130_fd_sc_hd__or4_1 abstract view
.subckt sky130_fd_sc_hd__or4_1 A B C D VGND VNB VPB VPWR X
.ends

* Black-box entry subcircuit for sky130_fd_sc_hd__or4_2 abstract view
.subckt sky130_fd_sc_hd__or4_2 A B C D VGND VNB VPB VPWR X
.ends

* Black-box entry subcircuit for sky130_fd_sc_hd__o31a_1 abstract view
.subckt sky130_fd_sc_hd__o31a_1 A1 A2 A3 B1 VGND VNB VPB VPWR X
.ends

* Black-box entry subcircuit for sky130_fd_sc_hd__or2b_1 abstract view
.subckt sky130_fd_sc_hd__or2b_1 A B_N VGND VNB VPB VPWR X
.ends

* Black-box entry subcircuit for sky130_fd_sc_hd__clkinv_2 abstract view
.subckt sky130_fd_sc_hd__clkinv_2 A VGND VNB VPB VPWR Y
.ends

* Black-box entry subcircuit for sky130_fd_sc_hd__or3b_1 abstract view
.subckt sky130_fd_sc_hd__or3b_1 A B C_N VGND VNB VPB VPWR X
.ends

* Black-box entry subcircuit for sky130_fd_sc_hd__nand2_2 abstract view
.subckt sky130_fd_sc_hd__nand2_2 A B VGND VNB VPB VPWR Y
.ends

* Black-box entry subcircuit for sky130_fd_sc_hd__a32o_2 abstract view
.subckt sky130_fd_sc_hd__a32o_2 A1 A2 A3 B1 B2 VGND VNB VPB VPWR X
.ends

* Black-box entry subcircuit for sky130_fd_sc_hd__o31ai_1 abstract view
.subckt sky130_fd_sc_hd__o31ai_1 A1 A2 A3 B1 VGND VNB VPB VPWR Y
.ends

* Black-box entry subcircuit for sky130_fd_sc_hd__o211a_1 abstract view
.subckt sky130_fd_sc_hd__o211a_1 A1 A2 B1 C1 VGND VNB VPB VPWR X
.ends

* Black-box entry subcircuit for sky130_fd_sc_hd__a21o_1 abstract view
.subckt sky130_fd_sc_hd__a21o_1 A1 A2 B1 VGND VNB VPB VPWR X
.ends

* Black-box entry subcircuit for sky130_fd_sc_hd__o21a_1 abstract view
.subckt sky130_fd_sc_hd__o21a_1 A1 A2 B1 VGND VNB VPB VPWR X
.ends

* Black-box entry subcircuit for sky130_fd_sc_hd__a221o_1 abstract view
.subckt sky130_fd_sc_hd__a221o_1 A1 A2 B1 B2 C1 VGND VNB VPB VPWR X
.ends

* Black-box entry subcircuit for sky130_fd_sc_hd__nand3_1 abstract view
.subckt sky130_fd_sc_hd__nand3_1 A B C VGND VNB VPB VPWR Y
.ends

* Black-box entry subcircuit for sky130_fd_sc_hd__a32o_1 abstract view
.subckt sky130_fd_sc_hd__a32o_1 A1 A2 A3 B1 B2 VGND VNB VPB VPWR X
.ends

* Black-box entry subcircuit for sky130_fd_sc_hd__or4b_2 abstract view
.subckt sky130_fd_sc_hd__or4b_2 A B C D_N VGND VNB VPB VPWR X
.ends

* Black-box entry subcircuit for sky130_fd_sc_hd__and4_1 abstract view
.subckt sky130_fd_sc_hd__and4_1 A B C D VGND VNB VPB VPWR X
.ends

* Black-box entry subcircuit for sky130_fd_sc_hd__o21bai_4 abstract view
.subckt sky130_fd_sc_hd__o21bai_4 A1 A2 B1_N VGND VNB VPB VPWR Y
.ends

* Black-box entry subcircuit for sky130_fd_sc_hd__a22o_1 abstract view
.subckt sky130_fd_sc_hd__a22o_1 A1 A2 B1 B2 VGND VNB VPB VPWR X
.ends

* Black-box entry subcircuit for sky130_fd_sc_hd__a2bb2o_1 abstract view
.subckt sky130_fd_sc_hd__a2bb2o_1 A1_N A2_N B1 B2 VGND VNB VPB VPWR X
.ends

* Black-box entry subcircuit for sky130_fd_sc_hd__nor4b_1 abstract view
.subckt sky130_fd_sc_hd__nor4b_1 A B C D_N VGND VNB VPB VPWR Y
.ends

* Black-box entry subcircuit for sky130_fd_sc_hd__xor2_4 abstract view
.subckt sky130_fd_sc_hd__xor2_4 A B VGND VNB VPB VPWR X
.ends

.subckt instrumented_adder a_input[0] a_input[1] a_input[2] a_input[3] a_input[4]
+ a_input[5] a_input[6] a_input[7] b[0] b[1] b[2] b[3] b[4] b[5] b[6] b[7] bypass
+ chain clk counter_end[0] counter_end[1] counter_end[2] counter_end[3] counter_end[4]
+ counter_end[5] counter_end[6] counter_end[7] counter_out[0] counter_out[1] counter_out[2]
+ counter_out[3] counter_out[4] counter_out[5] counter_out[6] counter_out[7] extra_inverter
+ reset ring_osc_counter_out[0] ring_osc_counter_out[1] ring_osc_counter_out[2] ring_osc_counter_out[3]
+ ring_osc_counter_out[4] ring_osc_counter_out[5] ring_osc_counter_out[6] ring_osc_counter_out[7]
+ run sum_out[0] sum_out[1] sum_out[2] sum_out[3] sum_out[4] sum_out[5] sum_out[6]
+ sum_out[7] time_count_overflow vccd1 vssd1
XFILLER_13_133 vssd1 vssd1 vccd1 vccd1 sky130_fd_sc_hd__fill_2
XFILLER_3_23 vssd1 vssd1 vccd1 vccd1 sky130_fd_sc_hd__decap_4
XFILLER_3_67 vssd1 vssd1 vccd1 vccd1 sky130_fd_sc_hd__decap_8
XFILLER_9_137 vssd1 vssd1 vccd1 vccd1 sky130_fd_sc_hd__decap_4
X_294_ _295_/A vssd1 vssd1 vccd1 vccd1 _294_/Y sky130_fd_sc_hd__inv_2
Xbuffers\[6\]._0_ buffers\[6\]._0_/A vssd1 vssd1 vccd1 vccd1 buffers\[7\]._0_/A sky130_fd_sc_hd__inv_2
XFILLER_10_125 vssd1 vssd1 vccd1 vccd1 sky130_fd_sc_hd__decap_4
XFILLER_10_136 vssd1 vssd1 vccd1 vccd1 sky130_fd_sc_hd__decap_4
XFILLER_12_21 vssd1 vssd1 vccd1 vccd1 sky130_fd_sc_hd__decap_6
XFILLER_12_32 vssd1 vssd1 vccd1 vccd1 sky130_fd_sc_hd__decap_4
X_277_ _277_/A _277_/B vssd1 vssd1 vccd1 vccd1 _278_/B sky130_fd_sc_hd__nor2_2
XFILLER_23_42 vssd1 vssd1 vccd1 vccd1 sky130_fd_sc_hd__decap_12
X_200_ counter_out[3] _200_/B _200_/C vssd1 vssd1 vccd1 vccd1 _204_/A sky130_fd_sc_hd__and3_1
XFILLER_0_57 vssd1 vssd1 vccd1 vccd1 sky130_fd_sc_hd__fill_2
XFILLER_0_13 vssd1 vssd1 vccd1 vccd1 sky130_fd_sc_hd__decap_12
XFILLER_9_99 vssd1 vssd1 vccd1 vccd1 sky130_fd_sc_hd__decap_12
XFILLER_18_97 vssd1 vssd1 vccd1 vccd1 sky130_fd_sc_hd__decap_4
XFILLER_13_3 vssd1 vssd1 vccd1 vccd1 sky130_fd_sc_hd__decap_12
XTAP_112 vssd1 vccd1 sky130_fd_sc_hd__tapvpwrvgnd_1
XTAP_101 vssd1 vccd1 sky130_fd_sc_hd__tapvpwrvgnd_1
X_293_ _293_/A _293_/B vssd1 vssd1 vccd1 vccd1 sum_out[6] sky130_fd_sc_hd__nor2_4
XFILLER_9_127 vssd1 vssd1 vccd1 vccd1 sky130_fd_sc_hd__decap_4
X_276_ _276_/A vssd1 vssd1 vccd1 vccd1 sum_out[0] sky130_fd_sc_hd__buf_2
XFILLER_23_54 vssd1 vssd1 vccd1 vccd1 sky130_fd_sc_hd__fill_2
XFILLER_2_144 vssd1 vssd1 vccd1 vccd1 sky130_fd_sc_hd__decap_8
X_259_ ring_osc_counter_out[0] ring_osc_counter_out[1] ring_osc_counter_out[2] vssd1
+ vssd1 vccd1 vccd1 _263_/B sky130_fd_sc_hd__and3_1
XFILLER_2_133 vssd1 vssd1 vccd1 vccd1 sky130_fd_sc_hd__decap_6
XFILLER_0_25 vssd1 vssd1 vccd1 vccd1 sky130_fd_sc_hd__decap_3
X_328_ _312_/Y _328_/D _152_/Y vssd1 vssd1 vccd1 vccd1 ring_osc_counter_out[7] sky130_fd_sc_hd__dfrtp_4
Xbuffers\[5\]._0_ buffers\[5\]._0_/A vssd1 vssd1 vccd1 vccd1 buffers\[6\]._0_/A sky130_fd_sc_hd__inv_2
XFILLER_18_43 vssd1 vssd1 vccd1 vccd1 sky130_fd_sc_hd__fill_1
XFILLER_1_90 vssd1 vssd1 vccd1 vccd1 sky130_fd_sc_hd__decap_3
XTAP_113 vssd1 vccd1 sky130_fd_sc_hd__tapvpwrvgnd_1
XFILLER_22_135 vssd1 vssd1 vccd1 vccd1 sky130_fd_sc_hd__decap_4
XTAP_102 vssd1 vccd1 sky130_fd_sc_hd__tapvpwrvgnd_1
XFILLER_13_113 vssd1 vssd1 vccd1 vccd1 sky130_fd_sc_hd__decap_3
X_292_ _291_/B _291_/C _291_/A vssd1 vssd1 vccd1 vccd1 _293_/B sky130_fd_sc_hd__a21oi_1
XFILLER_3_47 vssd1 vssd1 vccd1 vccd1 sky130_fd_sc_hd__decap_8
XFILLER_5_6 vssd1 vssd1 vccd1 vccd1 sky130_fd_sc_hd__decap_6
XFILLER_6_109 vssd1 vssd1 vccd1 vccd1 sky130_fd_sc_hd__decap_12
X_275_ _278_/A _275_/B vssd1 vssd1 vccd1 vccd1 _276_/A sky130_fd_sc_hd__and2_1
XFILLER_3_3 vssd1 vssd1 vccd1 vccd1 sky130_fd_sc_hd__decap_12
X_189_ _203_/B _192_/B vssd1 vssd1 vccd1 vccd1 _189_/Y sky130_fd_sc_hd__nand2_1
X_327_ _311_/Y _327_/D _153_/Y vssd1 vssd1 vccd1 vccd1 ring_osc_counter_out[6] sky130_fd_sc_hd__dfrtp_4
X_258_ ring_osc_counter_out[0] ring_osc_counter_out[1] vssd1 vssd1 vccd1 vccd1 _322_/D
+ sky130_fd_sc_hd__xor2_1
XFILLER_18_55 vssd1 vssd1 vccd1 vccd1 sky130_fd_sc_hd__fill_1
XFILLER_18_22 vssd1 vssd1 vccd1 vccd1 sky130_fd_sc_hd__decap_6
XFILLER_20_45 vssd1 vssd1 vccd1 vccd1 sky130_fd_sc_hd__decap_12
XFILLER_20_6 vssd1 vssd1 vccd1 vccd1 sky130_fd_sc_hd__decap_6
Xbuffers\[4\]._0_ buffers\[4\]._0_/A vssd1 vssd1 vccd1 vccd1 buffers\[5\]._0_/A sky130_fd_sc_hd__inv_2
XFILLER_6_14 vssd1 vssd1 vccd1 vccd1 sky130_fd_sc_hd__decap_12
XFILLER_19_141 vssd1 vssd1 vccd1 vccd1 sky130_fd_sc_hd__decap_4
XFILLER_25_122 vssd1 vssd1 vccd1 vccd1 sky130_fd_sc_hd__decap_4
XFILLER_16_100 vssd1 vssd1 vccd1 vccd1 sky130_fd_sc_hd__decap_12
XFILLER_15_89 vssd1 vssd1 vccd1 vccd1 sky130_fd_sc_hd__decap_4
XFILLER_15_23 vssd1 vssd1 vccd1 vccd1 sky130_fd_sc_hd__decap_8
XTAP_114 vssd1 vccd1 sky130_fd_sc_hd__tapvpwrvgnd_1
XTAP_103 vssd1 vccd1 sky130_fd_sc_hd__tapvpwrvgnd_1
XFILLER_13_125 vssd1 vssd1 vccd1 vccd1 sky130_fd_sc_hd__decap_8
X_291_ _291_/A _291_/B _291_/C vssd1 vssd1 vccd1 vccd1 _293_/A sky130_fd_sc_hd__and3_1
XFILLER_3_15 vssd1 vssd1 vccd1 vccd1 sky130_fd_sc_hd__decap_4
XFILLER_10_117 vssd1 vssd1 vccd1 vccd1 sky130_fd_sc_hd__fill_1
XFILLER_12_13 vssd1 vssd1 vccd1 vccd1 sky130_fd_sc_hd__decap_4
X_274_ _274_/A _274_/B vssd1 vssd1 vccd1 vccd1 _275_/B sky130_fd_sc_hd__or2_1
XFILLER_5_121 vssd1 vssd1 vccd1 vccd1 sky130_fd_sc_hd__decap_4
XFILLER_5_132 vssd1 vssd1 vccd1 vccd1 sky130_fd_sc_hd__decap_12
XFILLER_4_80 vssd1 vssd1 vccd1 vccd1 sky130_fd_sc_hd__decap_4
XFILLER_2_124 vssd1 vssd1 vccd1 vccd1 sky130_fd_sc_hd__decap_4
X_188_ _192_/A vssd1 vssd1 vccd1 vccd1 _203_/B sky130_fd_sc_hd__dlymetal6s2s_1
X_326_ _310_/Y _326_/D _154_/Y vssd1 vssd1 vccd1 vccd1 ring_osc_counter_out[5] sky130_fd_sc_hd__dfrtp_4
X_257_ _257_/A _257_/B vssd1 vssd1 vccd1 vccd1 _257_/Y sky130_fd_sc_hd__xnor2_1
XFILLER_15_9 vssd1 vssd1 vccd1 vccd1 sky130_fd_sc_hd__decap_4
X_309_ _309_/A _309_/B vssd1 vssd1 vccd1 vccd1 _309_/Y sky130_fd_sc_hd__nand2_1
XFILLER_20_57 vssd1 vssd1 vccd1 vccd1 sky130_fd_sc_hd__decap_8
XFILLER_6_26 vssd1 vssd1 vccd1 vccd1 sky130_fd_sc_hd__fill_2
XFILLER_19_131 vssd1 vssd1 vccd1 vccd1 sky130_fd_sc_hd__decap_4
XFILLER_15_57 vssd1 vssd1 vccd1 vccd1 sky130_fd_sc_hd__decap_12
XTAP_115 vssd1 vccd1 sky130_fd_sc_hd__tapvpwrvgnd_1
XTAP_104 vssd1 vccd1 sky130_fd_sc_hd__tapvpwrvgnd_1
XFILLER_16_112 vssd1 vssd1 vccd1 vccd1 sky130_fd_sc_hd__decap_12
XFILLER_22_148 vssd1 vssd1 vccd1 vccd1 sky130_fd_sc_hd__decap_4
Xbuffers\[3\]._0_ buffers\[3\]._0_/A vssd1 vssd1 vccd1 vccd1 buffers\[4\]._0_/A sky130_fd_sc_hd__inv_2
X_290_ _290_/A _290_/B vssd1 vssd1 vccd1 vccd1 sum_out[5] sky130_fd_sc_hd__nand2_4
XFILLER_8_130 vssd1 vssd1 vccd1 vccd1 sky130_fd_sc_hd__decap_8
XFILLER_8_141 vssd1 vssd1 vccd1 vccd1 sky130_fd_sc_hd__decap_8
X_273_ ring_osc_counter_out[7] _273_/B vssd1 vssd1 vccd1 vccd1 _328_/D sky130_fd_sc_hd__xnor2_1
XFILLER_12_69 vssd1 vssd1 vccd1 vccd1 sky130_fd_sc_hd__fill_1
X_187_ _192_/A _192_/B vssd1 vssd1 vccd1 vccd1 _187_/X sky130_fd_sc_hd__or2_1
X_325_ _309_/Y _325_/D _155_/Y vssd1 vssd1 vccd1 vccd1 ring_osc_counter_out[4] sky130_fd_sc_hd__dfrtp_4
XFILLER_9_37 vssd1 vssd1 vccd1 vccd1 sky130_fd_sc_hd__decap_4
XFILLER_9_48 vssd1 vssd1 vccd1 vccd1 sky130_fd_sc_hd__decap_8
X_256_ _256_/A1 sum_out[7] _255_/X vssd1 vssd1 vccd1 vccd1 _257_/B sky130_fd_sc_hd__o21bai_1
XFILLER_18_35 vssd1 vssd1 vccd1 vccd1 sky130_fd_sc_hd__decap_8
X_239_ _240_/A _240_/B vssd1 vssd1 vccd1 vccd1 _277_/B sky130_fd_sc_hd__nor2_1
XFILLER_1_82 vssd1 vssd1 vccd1 vccd1 sky130_fd_sc_hd__decap_8
X_308_ _309_/A _309_/B vssd1 vssd1 vccd1 vccd1 _308_/Y sky130_fd_sc_hd__nand2_1
XFILLER_20_69 vssd1 vssd1 vccd1 vccd1 sky130_fd_sc_hd__decap_12
XFILLER_20_36 vssd1 vssd1 vccd1 vccd1 sky130_fd_sc_hd__decap_4
XFILLER_6_49 vssd1 vssd1 vccd1 vccd1 sky130_fd_sc_hd__fill_1
XFILLER_25_113 vssd1 vssd1 vccd1 vccd1 sky130_fd_sc_hd__decap_6
XFILLER_15_36 vssd1 vssd1 vccd1 vccd1 sky130_fd_sc_hd__decap_12
XTAP_116 vssd1 vccd1 sky130_fd_sc_hd__tapvpwrvgnd_1
XTAP_105 vssd1 vccd1 sky130_fd_sc_hd__tapvpwrvgnd_1
XFILLER_16_124 vssd1 vssd1 vccd1 vccd1 sky130_fd_sc_hd__fill_1
XFILLER_22_116 vssd1 vssd1 vccd1 vccd1 sky130_fd_sc_hd__decap_4
XFILLER_7_70 vssd1 vssd1 vccd1 vccd1 sky130_fd_sc_hd__decap_12
X_272_ _272_/A vssd1 vssd1 vccd1 vccd1 _327_/D sky130_fd_sc_hd__clkbuf_1
Xbuffers\[2\]._0_ buffers\[2\]._0_/A vssd1 vssd1 vccd1 vccd1 buffers\[3\]._0_/A sky130_fd_sc_hd__inv_2
X_186_ _186_/A vssd1 vssd1 vccd1 vccd1 _192_/B sky130_fd_sc_hd__clkbuf_1
XFILLER_2_115 vssd1 vssd1 vccd1 vccd1 sky130_fd_sc_hd__decap_4
X_324_ _308_/Y _324_/D _156_/Y vssd1 vssd1 vccd1 vccd1 ring_osc_counter_out[3] sky130_fd_sc_hd__dfrtp_4
X_255_ _312_/A _312_/B _256_/A1 _302_/A vssd1 vssd1 vccd1 vccd1 _255_/X sky130_fd_sc_hd__a31o_1
XFILLER_18_69 vssd1 vssd1 vccd1 vccd1 sky130_fd_sc_hd__decap_4
XFILLER_1_3 vssd1 vssd1 vccd1 vccd1 sky130_fd_sc_hd__decap_4
X_307_ _309_/A _309_/B vssd1 vssd1 vccd1 vccd1 _307_/Y sky130_fd_sc_hd__nand2_1
X_238_ _274_/A _274_/B vssd1 vssd1 vccd1 vccd1 _278_/A sky130_fd_sc_hd__nand2_4
X_169_ _181_/A _176_/B vssd1 vssd1 vccd1 vccd1 _169_/Y sky130_fd_sc_hd__xnor2_1
XFILLER_20_15 vssd1 vssd1 vccd1 vccd1 sky130_fd_sc_hd__decap_12
XFILLER_19_111 vssd1 vssd1 vccd1 vccd1 sky130_fd_sc_hd__fill_1
XFILLER_10_92 vssd1 vssd1 vccd1 vccd1 sky130_fd_sc_hd__decap_4
XFILLER_25_136 vssd1 vssd1 vccd1 vccd1 sky130_fd_sc_hd__decap_4
XFILLER_15_48 vssd1 vssd1 vccd1 vccd1 sky130_fd_sc_hd__decap_8
XTAP_117 vssd1 vccd1 sky130_fd_sc_hd__tapvpwrvgnd_1
XFILLER_22_139 vssd1 vssd1 vccd1 vccd1 sky130_fd_sc_hd__fill_1
XTAP_106 vssd1 vccd1 sky130_fd_sc_hd__tapvpwrvgnd_1
XPHY_0 vssd1 vssd1 vccd1 vccd1 sky130_fd_sc_hd__decap_3
XFILLER_7_82 vssd1 vssd1 vccd1 vccd1 sky130_fd_sc_hd__decap_12
XFILLER_12_27 vssd1 vssd1 vccd1 vccd1 sky130_fd_sc_hd__fill_1
X_271_ _273_/B _271_/B vssd1 vssd1 vccd1 vccd1 _272_/A sky130_fd_sc_hd__and2_1
XFILLER_5_113 vssd1 vssd1 vccd1 vccd1 sky130_fd_sc_hd__decap_4
XFILLER_23_15 vssd1 vssd1 vccd1 vccd1 sky130_fd_sc_hd__decap_4
XFILLER_4_50 vssd1 vssd1 vccd1 vccd1 sky130_fd_sc_hd__decap_3
XFILLER_4_72 vssd1 vssd1 vccd1 vccd1 sky130_fd_sc_hd__decap_4
XFILLER_4_94 vssd1 vssd1 vccd1 vccd1 sky130_fd_sc_hd__decap_6
X_185_ _185_/A _185_/B _176_/Y _178_/X vssd1 vssd1 vccd1 vccd1 _206_/C sky130_fd_sc_hd__or4bb_1
X_323_ _307_/Y _323_/D _158_/Y vssd1 vssd1 vccd1 vccd1 ring_osc_counter_out[2] sky130_fd_sc_hd__dfrtp_4
X_254_ _254_/A vssd1 vssd1 vccd1 vccd1 _312_/B sky130_fd_sc_hd__clkbuf_2
XFILLER_18_59 vssd1 vssd1 vccd1 vccd1 sky130_fd_sc_hd__decap_4
XFILLER_18_15 vssd1 vssd1 vccd1 vccd1 sky130_fd_sc_hd__decap_4
X_237_ _281_/A _281_/B vssd1 vssd1 vccd1 vccd1 _286_/B sky130_fd_sc_hd__or2_1
X_306_ _309_/A _309_/B vssd1 vssd1 vccd1 vccd1 _306_/Y sky130_fd_sc_hd__nand2_1
X_168_ _181_/C _181_/D vssd1 vssd1 vccd1 vccd1 _176_/B sky130_fd_sc_hd__or2_1
Xbuffers\[1\]._0_ buffers\[1\]._0_/A vssd1 vssd1 vccd1 vccd1 buffers\[2\]._0_/A sky130_fd_sc_hd__inv_2
XFILLER_20_27 vssd1 vssd1 vccd1 vccd1 sky130_fd_sc_hd__fill_1
XFILLER_19_123 vssd1 vssd1 vccd1 vccd1 sky130_fd_sc_hd__fill_1
XFILLER_6_29 vssd1 vssd1 vccd1 vccd1 sky130_fd_sc_hd__decap_12
XFILLER_25_148 vssd1 vssd1 vccd1 vccd1 sky130_fd_sc_hd__decap_4
XFILLER_15_16 vssd1 vssd1 vccd1 vccd1 sky130_fd_sc_hd__decap_4
XFILLER_16_137 vssd1 vssd1 vccd1 vccd1 sky130_fd_sc_hd__decap_3
XTAP_118 vssd1 vccd1 sky130_fd_sc_hd__tapvpwrvgnd_1
XTAP_107 vssd1 vccd1 sky130_fd_sc_hd__tapvpwrvgnd_1
XPHY_1 vssd1 vssd1 vccd1 vccd1 sky130_fd_sc_hd__decap_3
XFILLER_21_151 vssd1 vssd1 vccd1 vccd1 sky130_fd_sc_hd__fill_1
XFILLER_7_94 vssd1 vssd1 vccd1 vccd1 sky130_fd_sc_hd__decap_4
XFILLER_3_19 vssd1 vssd1 vccd1 vccd1 sky130_fd_sc_hd__fill_1
XFILLER_12_151 vssd1 vssd1 vccd1 vccd1 sky130_fd_sc_hd__fill_1
XFILLER_12_17 vssd1 vssd1 vccd1 vccd1 sky130_fd_sc_hd__fill_1
XFILLER_12_39 vssd1 vssd1 vccd1 vccd1 sky130_fd_sc_hd__decap_12
X_270_ ring_osc_counter_out[6] _270_/B vssd1 vssd1 vccd1 vccd1 _271_/B sky130_fd_sc_hd__or2_1
XFILLER_2_139 vssd1 vssd1 vccd1 vccd1 sky130_fd_sc_hd__fill_1
X_322_ _306_/Y _322_/D _159_/Y vssd1 vssd1 vccd1 vccd1 ring_osc_counter_out[1] sky130_fd_sc_hd__dfrtp_4
X_184_ counter_out[4] _173_/B _182_/Y vssd1 vssd1 vccd1 vccd1 _206_/B sky130_fd_sc_hd__a21bo_1
X_253_ _253_/A vssd1 vssd1 vccd1 vccd1 _312_/A sky130_fd_sc_hd__clkbuf_2
XFILLER_18_49 vssd1 vssd1 vccd1 vccd1 sky130_fd_sc_hd__decap_6
XFILLER_24_92 vssd1 vssd1 vccd1 vccd1 sky130_fd_sc_hd__decap_12
XFILLER_24_81 vssd1 vssd1 vccd1 vccd1 sky130_fd_sc_hd__decap_3
X_236_ _288_/A _236_/B vssd1 vssd1 vccd1 vccd1 _286_/A sky130_fd_sc_hd__nor2_2
X_305_ _309_/A _309_/B vssd1 vssd1 vccd1 vccd1 _305_/Y sky130_fd_sc_hd__nand2_1
X_167_ _181_/B _167_/B vssd1 vssd1 vccd1 vccd1 _167_/X sky130_fd_sc_hd__xor2_1
XFILLER_1_52 vssd1 vssd1 vccd1 vccd1 sky130_fd_sc_hd__decap_4
XFILLER_10_83 vssd1 vssd1 vccd1 vccd1 sky130_fd_sc_hd__fill_1
XFILLER_19_81 vssd1 vssd1 vccd1 vccd1 sky130_fd_sc_hd__decap_8
X_219_ _219_/A _226_/B _219_/C vssd1 vssd1 vccd1 vccd1 _222_/A sky130_fd_sc_hd__nor3_1
XFILLER_16_149 vssd1 vssd1 vccd1 vccd1 sky130_fd_sc_hd__decap_3
Xbuffers\[0\]._0_ _257_/Y vssd1 vssd1 vccd1 vccd1 buffers\[1\]._0_/A sky130_fd_sc_hd__inv_2
XTAP_119 vssd1 vccd1 sky130_fd_sc_hd__tapvpwrvgnd_1
XTAP_108 vssd1 vccd1 sky130_fd_sc_hd__tapvpwrvgnd_1
Xclkbuf_0_clk clk vssd1 vssd1 vccd1 vccd1 clkbuf_0_clk/X sky130_fd_sc_hd__clkbuf_16
XPHY_2 vssd1 vssd1 vccd1 vccd1 sky130_fd_sc_hd__decap_3
XFILLER_13_108 vssd1 vssd1 vccd1 vccd1 sky130_fd_sc_hd__decap_4
XFILLER_7_62 vssd1 vssd1 vccd1 vccd1 sky130_fd_sc_hd__decap_4
XFILLER_5_148 vssd1 vssd1 vccd1 vccd1 sky130_fd_sc_hd__decap_4
XFILLER_4_63 vssd1 vssd1 vccd1 vccd1 sky130_fd_sc_hd__decap_6
XFILLER_4_85 vssd1 vssd1 vccd1 vccd1 sky130_fd_sc_hd__decap_6
X_183_ _206_/A _179_/X _182_/Y vssd1 vssd1 vccd1 vccd1 _183_/Y sky130_fd_sc_hd__o21ai_1
XFILLER_13_61 vssd1 vssd1 vccd1 vccd1 sky130_fd_sc_hd__fill_1
X_321_ _305_/Y _321_/D _160_/Y vssd1 vssd1 vccd1 vccd1 ring_osc_counter_out[0] sky130_fd_sc_hd__dfrtp_4
X_252_ _252_/A _252_/B vssd1 vssd1 vccd1 vccd1 sum_out[7] sky130_fd_sc_hd__xnor2_4
XFILLER_24_60 vssd1 vssd1 vccd1 vccd1 sky130_fd_sc_hd__decap_6
X_235_ _235_/A _235_/B vssd1 vssd1 vccd1 vccd1 _236_/B sky130_fd_sc_hd__nor2_1
X_304_ _312_/B vssd1 vssd1 vccd1 vccd1 _309_/B sky130_fd_sc_hd__dlymetal6s2s_1
XFILLER_1_97 vssd1 vssd1 vccd1 vccd1 sky130_fd_sc_hd__decap_6
XFILLER_1_75 vssd1 vssd1 vccd1 vccd1 sky130_fd_sc_hd__decap_4
XFILLER_1_64 vssd1 vssd1 vccd1 vccd1 sky130_fd_sc_hd__decap_4
XFILLER_1_42 vssd1 vssd1 vccd1 vccd1 sky130_fd_sc_hd__decap_6
X_166_ _181_/A _181_/C _181_/D vssd1 vssd1 vccd1 vccd1 _167_/B sky130_fd_sc_hd__or3_1
X_218_ counter_out[1] counter_out[0] vssd1 vssd1 vccd1 vccd1 _219_/C sky130_fd_sc_hd__nand2_1
XTAP_109 vssd1 vccd1 sky130_fd_sc_hd__tapvpwrvgnd_1
XPHY_3 vssd1 vssd1 vccd1 vccd1 sky130_fd_sc_hd__decap_3
XFILLER_16_83 vssd1 vssd1 vccd1 vccd1 sky130_fd_sc_hd__fill_1
XFILLER_16_50 vssd1 vssd1 vccd1 vccd1 sky130_fd_sc_hd__decap_6
XFILLER_4_42 vssd1 vssd1 vccd1 vccd1 sky130_fd_sc_hd__decap_8
XFILLER_2_119 vssd1 vssd1 vccd1 vccd1 sky130_fd_sc_hd__fill_1
XFILLER_13_73 vssd1 vssd1 vccd1 vccd1 sky130_fd_sc_hd__fill_2
X_320_ _320_/CLK _320_/D _302_/Y vssd1 vssd1 vccd1 vccd1 counter_out[7] sky130_fd_sc_hd__dfrtp_4
X_251_ _251_/A chain vssd1 vssd1 vccd1 vccd1 _252_/B sky130_fd_sc_hd__xnor2_1
X_182_ _180_/X counter_out[7] _230_/A vssd1 vssd1 vccd1 vccd1 _182_/Y sky130_fd_sc_hd__nand3b_1
X_234_ _235_/A _235_/B vssd1 vssd1 vccd1 vccd1 _288_/A sky130_fd_sc_hd__and2_1
X_303_ _312_/A vssd1 vssd1 vccd1 vccd1 _309_/A sky130_fd_sc_hd__dlymetal6s2s_1
X_165_ _172_/A _165_/B vssd1 vssd1 vccd1 vccd1 _181_/D sky130_fd_sc_hd__or2_1
XFILLER_19_148 vssd1 vssd1 vccd1 vccd1 sky130_fd_sc_hd__decap_4
X_217_ counter_out[2] vssd1 vssd1 vccd1 vccd1 _219_/A sky130_fd_sc_hd__inv_2
XFILLER_21_51 vssd1 vssd1 vccd1 vccd1 sky130_fd_sc_hd__decap_4
XFILLER_16_129 vssd1 vssd1 vccd1 vccd1 sky130_fd_sc_hd__decap_8
XPHY_4 vssd1 vssd1 vccd1 vccd1 sky130_fd_sc_hd__decap_3
XFILLER_7_53 vssd1 vssd1 vccd1 vccd1 sky130_fd_sc_hd__decap_3
XFILLER_5_106 vssd1 vssd1 vccd1 vccd1 sky130_fd_sc_hd__decap_6
XFILLER_5_117 vssd1 vssd1 vccd1 vccd1 sky130_fd_sc_hd__fill_1
XFILLER_23_19 vssd1 vssd1 vccd1 vccd1 sky130_fd_sc_hd__fill_1
XFILLER_4_32 vssd1 vssd1 vccd1 vccd1 sky130_fd_sc_hd__decap_6
XFILLER_4_76 vssd1 vssd1 vccd1 vccd1 sky130_fd_sc_hd__fill_1
XFILLER_13_96 vssd1 vssd1 vccd1 vccd1 sky130_fd_sc_hd__decap_8
X_181_ _181_/A _181_/B _181_/C _181_/D vssd1 vssd1 vccd1 vccd1 _230_/A sky130_fd_sc_hd__or4_1
X_250_ _253_/A _254_/A vssd1 vssd1 vccd1 vccd1 chain sky130_fd_sc_hd__nand2_4
Xbuffers\[19\]._0_ buffers\[19\]._0_/A vssd1 vssd1 vccd1 vccd1 buffers\[20\]._0_/A
+ sky130_fd_sc_hd__inv_2
X_164_ _192_/A _186_/A _192_/C _164_/D vssd1 vssd1 vccd1 vccd1 _181_/C sky130_fd_sc_hd__or4_2
X_233_ _246_/A _246_/B vssd1 vssd1 vccd1 vccd1 _291_/B sky130_fd_sc_hd__or2_1
XFILLER_1_11 vssd1 vssd1 vccd1 vccd1 sky130_fd_sc_hd__decap_8
X_302_ _302_/A vssd1 vssd1 vccd1 vccd1 _302_/Y sky130_fd_sc_hd__inv_2
XFILLER_19_95 vssd1 vssd1 vccd1 vccd1 sky130_fd_sc_hd__decap_4
XFILLER_10_75 vssd1 vssd1 vccd1 vccd1 sky130_fd_sc_hd__decap_8
X_216_ counter_out[4] _216_/B vssd1 vssd1 vccd1 vccd1 _317_/D sky130_fd_sc_hd__xnor2_1
XFILLER_18_3 vssd1 vssd1 vccd1 vccd1 sky130_fd_sc_hd__fill_2
XFILLER_24_141 vssd1 vssd1 vccd1 vccd1 sky130_fd_sc_hd__decap_3
XFILLER_24_130 vssd1 vssd1 vccd1 vccd1 sky130_fd_sc_hd__decap_8
XFILLER_15_141 vssd1 vssd1 vccd1 vccd1 sky130_fd_sc_hd__decap_4
XPHY_5 vssd1 vssd1 vccd1 vccd1 sky130_fd_sc_hd__decap_3
XFILLER_7_21 vssd1 vssd1 vccd1 vccd1 sky130_fd_sc_hd__decap_12
XFILLER_21_133 vssd1 vssd1 vccd1 vccd1 sky130_fd_sc_hd__decap_12
XFILLER_4_22 vssd1 vssd1 vccd1 vccd1 sky130_fd_sc_hd__decap_6
X_180_ _181_/A _200_/B _181_/D _181_/B vssd1 vssd1 vccd1 vccd1 _180_/X sky130_fd_sc_hd__o31a_1
XFILLER_1_121 vssd1 vssd1 vccd1 vccd1 sky130_fd_sc_hd__decap_3
XFILLER_24_52 vssd1 vssd1 vccd1 vccd1 sky130_fd_sc_hd__fill_1
X_163_ counter_out[4] vssd1 vssd1 vccd1 vccd1 _213_/A sky130_fd_sc_hd__inv_2
X_301_ _301_/A vssd1 vssd1 vccd1 vccd1 _301_/Y sky130_fd_sc_hd__inv_2
X_232_ _232_/A _232_/B vssd1 vssd1 vccd1 vccd1 _291_/A sky130_fd_sc_hd__xor2_1
Xbuffers\[18\]._0_ buffers\[18\]._0_/A vssd1 vssd1 vccd1 vccd1 buffers\[19\]._0_/A
+ sky130_fd_sc_hd__inv_2
XFILLER_10_21 vssd1 vssd1 vccd1 vccd1 sky130_fd_sc_hd__decap_6
XFILLER_25_109 vssd1 vssd1 vccd1 vccd1 sky130_fd_sc_hd__decap_3
X_215_ _226_/B _208_/X vssd1 vssd1 vccd1 vccd1 _216_/B sky130_fd_sc_hd__or2b_1
XFILLER_21_86 vssd1 vssd1 vccd1 vccd1 sky130_fd_sc_hd__decap_12
XPHY_6 vssd1 vssd1 vccd1 vccd1 sky130_fd_sc_hd__decap_3
XFILLER_7_11 vssd1 vssd1 vccd1 vccd1 sky130_fd_sc_hd__fill_1
XFILLER_7_33 vssd1 vssd1 vccd1 vccd1 sky130_fd_sc_hd__decap_12
XFILLER_7_66 vssd1 vssd1 vccd1 vccd1 sky130_fd_sc_hd__fill_1
XFILLER_21_145 vssd1 vssd1 vccd1 vccd1 sky130_fd_sc_hd__decap_6
XFILLER_8_138 vssd1 vssd1 vccd1 vccd1 sky130_fd_sc_hd__fill_2
XFILLER_8_149 vssd1 vssd1 vccd1 vccd1 sky130_fd_sc_hd__decap_3
XFILLER_12_145 vssd1 vssd1 vccd1 vccd1 sky130_fd_sc_hd__decap_6
XFILLER_13_87 vssd1 vssd1 vccd1 vccd1 sky130_fd_sc_hd__decap_4
XFILLER_13_65 vssd1 vssd1 vccd1 vccd1 sky130_fd_sc_hd__decap_8
XFILLER_13_32 vssd1 vssd1 vccd1 vccd1 sky130_fd_sc_hd__decap_12
XFILLER_8_3 vssd1 vssd1 vccd1 vccd1 sky130_fd_sc_hd__fill_1
X_300_ _301_/A vssd1 vssd1 vccd1 vccd1 _300_/Y sky130_fd_sc_hd__inv_2
X_162_ counter_out[5] vssd1 vssd1 vccd1 vccd1 _209_/A sky130_fd_sc_hd__clkinv_2
X_231_ _231_/A vssd1 vssd1 vccd1 vccd1 time_count_overflow sky130_fd_sc_hd__buf_2
XFILLER_1_57 vssd1 vssd1 vccd1 vccd1 sky130_fd_sc_hd__fill_2
Xinput1 a_input[0] vssd1 vssd1 vccd1 vccd1 _274_/A sky130_fd_sc_hd__clkbuf_2
XFILLER_19_107 vssd1 vssd1 vccd1 vccd1 sky130_fd_sc_hd__decap_4
XFILLER_19_42 vssd1 vssd1 vccd1 vccd1 sky130_fd_sc_hd__decap_12
XTAP_90 vssd1 vccd1 sky130_fd_sc_hd__tapvpwrvgnd_1
XFILLER_10_99 vssd1 vssd1 vccd1 vccd1 sky130_fd_sc_hd__decap_12
XFILLER_25_6 vssd1 vssd1 vccd1 vccd1 sky130_fd_sc_hd__decap_4
X_214_ counter_out[5] _214_/B vssd1 vssd1 vccd1 vccd1 _318_/D sky130_fd_sc_hd__xnor2_1
XFILLER_24_121 vssd1 vssd1 vccd1 vccd1 sky130_fd_sc_hd__decap_4
XFILLER_21_98 vssd1 vssd1 vccd1 vccd1 sky130_fd_sc_hd__decap_4
XFILLER_21_21 vssd1 vssd1 vccd1 vccd1 sky130_fd_sc_hd__fill_1
XPHY_7 vssd1 vssd1 vccd1 vccd1 sky130_fd_sc_hd__decap_3
XFILLER_23_3 vssd1 vssd1 vccd1 vccd1 sky130_fd_sc_hd__decap_12
XFILLER_7_45 vssd1 vssd1 vccd1 vccd1 sky130_fd_sc_hd__decap_8
Xbuffers\[17\]._0_ buffers\[17\]._0_/A vssd1 vssd1 vccd1 vccd1 buffers\[18\]._0_/A
+ sky130_fd_sc_hd__inv_2
XFILLER_13_44 vssd1 vssd1 vccd1 vccd1 sky130_fd_sc_hd__decap_12
XFILLER_1_134 vssd1 vssd1 vccd1 vccd1 sky130_fd_sc_hd__decap_4
X_161_ counter_out[6] vssd1 vssd1 vccd1 vccd1 _178_/B sky130_fd_sc_hd__inv_2
X_230_ _230_/A _230_/B _230_/C vssd1 vssd1 vccd1 vccd1 _231_/A sky130_fd_sc_hd__and3_1
XTAP_91 vssd1 vccd1 sky130_fd_sc_hd__tapvpwrvgnd_1
Xinput2 a_input[1] vssd1 vssd1 vccd1 vccd1 _240_/A sky130_fd_sc_hd__dlymetal6s2s_1
XTAP_80 vssd1 vccd1 sky130_fd_sc_hd__tapvpwrvgnd_1
XFILLER_19_119 vssd1 vssd1 vccd1 vccd1 sky130_fd_sc_hd__decap_4
XFILLER_19_65 vssd1 vssd1 vccd1 vccd1 sky130_fd_sc_hd__fill_1
XFILLER_19_54 vssd1 vssd1 vccd1 vccd1 sky130_fd_sc_hd__fill_2
X_213_ _213_/A _226_/B _208_/X vssd1 vssd1 vccd1 vccd1 _214_/B sky130_fd_sc_hd__or3b_1
XFILLER_18_141 vssd1 vssd1 vccd1 vccd1 sky130_fd_sc_hd__decap_8
XFILLER_21_77 vssd1 vssd1 vccd1 vccd1 sky130_fd_sc_hd__decap_6
XFILLER_21_55 vssd1 vssd1 vccd1 vccd1 sky130_fd_sc_hd__fill_1
XFILLER_21_11 vssd1 vssd1 vccd1 vccd1 sky130_fd_sc_hd__fill_1
XFILLER_16_3 vssd1 vssd1 vccd1 vccd1 sky130_fd_sc_hd__fill_2
XFILLER_15_111 vssd1 vssd1 vccd1 vccd1 sky130_fd_sc_hd__fill_1
XPHY_8 vssd1 vssd1 vccd1 vccd1 sky130_fd_sc_hd__decap_3
XFILLER_7_57 vssd1 vssd1 vccd1 vccd1 sky130_fd_sc_hd__fill_1
XFILLER_16_88 vssd1 vssd1 vccd1 vccd1 sky130_fd_sc_hd__decap_12
XFILLER_12_125 vssd1 vssd1 vccd1 vccd1 sky130_fd_sc_hd__decap_6
XFILLER_12_136 vssd1 vssd1 vccd1 vccd1 sky130_fd_sc_hd__decap_4
Xbuffers\[16\]._0_ buffers\[16\]._0_/A vssd1 vssd1 vccd1 vccd1 buffers\[17\]._0_/A
+ sky130_fd_sc_hd__inv_2
XFILLER_13_78 vssd1 vssd1 vccd1 vccd1 sky130_fd_sc_hd__decap_4
XFILLER_1_113 vssd1 vssd1 vccd1 vccd1 sky130_fd_sc_hd__decap_8
XFILLER_1_48 vssd1 vssd1 vccd1 vccd1 sky130_fd_sc_hd__fill_1