* NGSPICE file created from instrumented_adder.ext - technology: sky130A

* Black-box entry subcircuit for sky130_fd_sc_hd__decap_4 abstract view
.subckt sky130_fd_sc_hd__decap_4 VGND VNB VPB VPWR
.ends

* Black-box entry subcircuit for sky130_fd_sc_hd__dfrtp_4 abstract view
.subckt sky130_fd_sc_hd__dfrtp_4 CLK D RESET_B VGND VNB VPB VPWR Q
.ends

* Black-box entry subcircuit for sky130_fd_sc_hd__decap_8 abstract view
.subckt sky130_fd_sc_hd__decap_8 VGND VNB VPB VPWR
.ends

* Black-box entry subcircuit for sky130_fd_sc_hd__inv_2 abstract view
.subckt sky130_fd_sc_hd__inv_2 A VGND VNB VPB VPWR Y
.ends

* Black-box entry subcircuit for sky130_fd_sc_hd__decap_12 abstract view
.subckt sky130_fd_sc_hd__decap_12 VGND VNB VPB VPWR
.ends

* Black-box entry subcircuit for sky130_fd_sc_hd__nand2_1 abstract view
.subckt sky130_fd_sc_hd__nand2_1 A B VGND VNB VPB VPWR Y
.ends

* Black-box entry subcircuit for sky130_fd_sc_hd__xor2_1 abstract view
.subckt sky130_fd_sc_hd__xor2_1 A B VGND VNB VPB VPWR X
.ends

* Black-box entry subcircuit for sky130_fd_sc_hd__fill_1 abstract view
.subckt sky130_fd_sc_hd__fill_1 VGND VNB VPB VPWR
.ends

* Black-box entry subcircuit for sky130_fd_sc_hd__tapvpwrvgnd_1 abstract view
.subckt sky130_fd_sc_hd__tapvpwrvgnd_1 VGND VPWR
.ends

* Black-box entry subcircuit for sky130_fd_sc_hd__decap_6 abstract view
.subckt sky130_fd_sc_hd__decap_6 VGND VNB VPB VPWR
.ends

* Black-box entry subcircuit for sky130_fd_sc_hd__and3_1 abstract view
.subckt sky130_fd_sc_hd__and3_1 A B C VGND VNB VPB VPWR X
.ends

* Black-box entry subcircuit for sky130_fd_sc_hd__decap_3 abstract view
.subckt sky130_fd_sc_hd__decap_3 VGND VNB VPB VPWR
.ends

* Black-box entry subcircuit for sky130_fd_sc_hd__fill_2 abstract view
.subckt sky130_fd_sc_hd__fill_2 VGND VNB VPB VPWR
.ends

* Black-box entry subcircuit for sky130_fd_sc_hd__dlymetal6s2s_1 abstract view
.subckt sky130_fd_sc_hd__dlymetal6s2s_1 A VGND VNB VPB VPWR X
.ends

* Black-box entry subcircuit for sky130_fd_sc_hd__a21oi_1 abstract view
.subckt sky130_fd_sc_hd__a21oi_1 A1 A2 B1 VGND VNB VPB VPWR Y
.ends

* Black-box entry subcircuit for sky130_fd_sc_hd__a22o_1 abstract view
.subckt sky130_fd_sc_hd__a22o_1 A1 A2 B1 B2 VGND VNB VPB VPWR X
.ends

* Black-box entry subcircuit for sky130_fd_sc_hd__buf_2 abstract view
.subckt sky130_fd_sc_hd__buf_2 A VGND VNB VPB VPWR X
.ends

* Black-box entry subcircuit for sky130_fd_sc_hd__xnor2_1 abstract view
.subckt sky130_fd_sc_hd__xnor2_1 A B VGND VNB VPB VPWR Y
.ends

* Black-box entry subcircuit for sky130_fd_sc_hd__or3_1 abstract view
.subckt sky130_fd_sc_hd__or3_1 A B C VGND VNB VPB VPWR X
.ends

* Black-box entry subcircuit for sky130_fd_sc_hd__a21o_1 abstract view
.subckt sky130_fd_sc_hd__a21o_1 A1 A2 B1 VGND VNB VPB VPWR X
.ends

* Black-box entry subcircuit for sky130_fd_sc_hd__clkbuf_1 abstract view
.subckt sky130_fd_sc_hd__clkbuf_1 A VGND VNB VPB VPWR X
.ends

* Black-box entry subcircuit for sky130_fd_sc_hd__and2_1 abstract view
.subckt sky130_fd_sc_hd__and2_1 A B VGND VNB VPB VPWR X
.ends

* Black-box entry subcircuit for sky130_fd_sc_hd__nor2_1 abstract view
.subckt sky130_fd_sc_hd__nor2_1 A B VGND VNB VPB VPWR Y
.ends

* Black-box entry subcircuit for sky130_fd_sc_hd__or2_1 abstract view
.subckt sky130_fd_sc_hd__or2_1 A B VGND VNB VPB VPWR X
.ends

* Black-box entry subcircuit for sky130_fd_sc_hd__and4_1 abstract view
.subckt sky130_fd_sc_hd__and4_1 A B C D VGND VNB VPB VPWR X
.ends

* Black-box entry subcircuit for sky130_fd_sc_hd__a31o_1 abstract view
.subckt sky130_fd_sc_hd__a31o_1 A1 A2 A3 B1 VGND VNB VPB VPWR X
.ends

* Black-box entry subcircuit for sky130_fd_sc_hd__clkbuf_16 abstract view
.subckt sky130_fd_sc_hd__clkbuf_16 A VGND VNB VPB VPWR X
.ends

* Black-box entry subcircuit for sky130_fd_sc_hd__o21a_1 abstract view
.subckt sky130_fd_sc_hd__o21a_1 A1 A2 B1 VGND VNB VPB VPWR X
.ends

* Black-box entry subcircuit for sky130_fd_sc_hd__o21ba_1 abstract view
.subckt sky130_fd_sc_hd__o21ba_1 A1 A2 B1_N VGND VNB VPB VPWR X
.ends

* Black-box entry subcircuit for sky130_fd_sc_hd__o211ai_1 abstract view
.subckt sky130_fd_sc_hd__o211ai_1 A1 A2 B1 C1 VGND VNB VPB VPWR Y
.ends

* Black-box entry subcircuit for sky130_fd_sc_hd__o21ai_1 abstract view
.subckt sky130_fd_sc_hd__o21ai_1 A1 A2 B1 VGND VNB VPB VPWR Y
.ends

* Black-box entry subcircuit for sky130_fd_sc_hd__o22ai_1 abstract view
.subckt sky130_fd_sc_hd__o22ai_1 A1 A2 B1 B2 VGND VNB VPB VPWR Y
.ends

* Black-box entry subcircuit for sky130_fd_sc_hd__nor4_1 abstract view
.subckt sky130_fd_sc_hd__nor4_1 A B C D VGND VNB VPB VPWR Y
.ends

* Black-box entry subcircuit for sky130_fd_sc_hd__a21boi_1 abstract view
.subckt sky130_fd_sc_hd__a21boi_1 A1 A2 B1_N VGND VNB VPB VPWR Y
.ends

* Black-box entry subcircuit for sky130_fd_sc_hd__or4_1 abstract view
.subckt sky130_fd_sc_hd__or4_1 A B C D VGND VNB VPB VPWR X
.ends

* Black-box entry subcircuit for sky130_fd_sc_hd__o21a_2 abstract view
.subckt sky130_fd_sc_hd__o21a_2 A1 A2 B1 VGND VNB VPB VPWR X
.ends

* Black-box entry subcircuit for sky130_fd_sc_hd__or4_2 abstract view
.subckt sky130_fd_sc_hd__or4_2 A B C D VGND VNB VPB VPWR X
.ends

* Black-box entry subcircuit for sky130_fd_sc_hd__clkinv_2 abstract view
.subckt sky130_fd_sc_hd__clkinv_2 A VGND VNB VPB VPWR Y
.ends

* Black-box entry subcircuit for sky130_fd_sc_hd__clkbuf_2 abstract view
.subckt sky130_fd_sc_hd__clkbuf_2 A VGND VNB VPB VPWR X
.ends

* Black-box entry subcircuit for sky130_fd_sc_hd__or4b_1 abstract view
.subckt sky130_fd_sc_hd__or4b_1 A B C D_N VGND VNB VPB VPWR X
.ends

* Black-box entry subcircuit for sky130_fd_sc_hd__a211o_1 abstract view
.subckt sky130_fd_sc_hd__a211o_1 A1 A2 B1 C1 VGND VNB VPB VPWR X
.ends

* Black-box entry subcircuit for sky130_fd_sc_hd__a41o_1 abstract view
.subckt sky130_fd_sc_hd__a41o_1 A1 A2 A3 A4 B1 VGND VNB VPB VPWR X
.ends

* Black-box entry subcircuit for sky130_fd_sc_hd__nand2_4 abstract view
.subckt sky130_fd_sc_hd__nand2_4 A B VGND VNB VPB VPWR Y
.ends

* Black-box entry subcircuit for sky130_fd_sc_hd__o22a_1 abstract view
.subckt sky130_fd_sc_hd__o22a_1 A1 A2 B1 B2 VGND VNB VPB VPWR X
.ends

* Black-box entry subcircuit for sky130_fd_sc_hd__a2bb2o_1 abstract view
.subckt sky130_fd_sc_hd__a2bb2o_1 A1_N A2_N B1 B2 VGND VNB VPB VPWR X
.ends

* Black-box entry subcircuit for sky130_fd_sc_hd__a211oi_1 abstract view
.subckt sky130_fd_sc_hd__a211oi_1 A1 A2 B1 C1 VGND VNB VPB VPWR Y
.ends

* Black-box entry subcircuit for sky130_fd_sc_hd__and3b_1 abstract view
.subckt sky130_fd_sc_hd__and3b_1 A_N B C VGND VNB VPB VPWR X
.ends

* Black-box entry subcircuit for sky130_fd_sc_hd__a32o_1 abstract view
.subckt sky130_fd_sc_hd__a32o_1 A1 A2 A3 B1 B2 VGND VNB VPB VPWR X
.ends

* Black-box entry subcircuit for sky130_fd_sc_hd__o31a_1 abstract view
.subckt sky130_fd_sc_hd__o31a_1 A1 A2 A3 B1 VGND VNB VPB VPWR X
.ends

* Black-box entry subcircuit for sky130_fd_sc_hd__a21bo_1 abstract view
.subckt sky130_fd_sc_hd__a21bo_1 A1 A2 B1_N VGND VNB VPB VPWR X
.ends

.subckt instrumented_adder a_input[0] a_input[1] a_input[2] a_input[3] a_input[4]
+ a_input[5] a_input[6] a_input[7] b[0] b[1] b[2] b[3] b[4] b[5] b[6] b[7] bypass
+ chain clk counter_end[0] counter_end[1] counter_end[2] counter_end[3] counter_end[4]
+ counter_end[5] counter_end[6] counter_end[7] counter_out[0] counter_out[1] counter_out[2]
+ counter_out[3] counter_out[4] counter_out[5] counter_out[6] counter_out[7] extra_inverter
+ reset ring_osc_counter_out[0] ring_osc_counter_out[1] ring_osc_counter_out[2] ring_osc_counter_out[3]
+ ring_osc_counter_out[4] ring_osc_counter_out[5] ring_osc_counter_out[6] ring_osc_counter_out[7]
+ run sum_out[0] sum_out[1] sum_out[2] sum_out[3] sum_out[4] sum_out[5] sum_out[6]
+ sum_out[7] time_count_overflow vccd1 vssd1
XFILLER_3_45 vssd1 vssd1 vccd1 vccd1 sky130_fd_sc_hd__decap_4
X_294_ _277_/Y _294_/D _209_/Y vssd1 vssd1 vccd1 vccd1 ring_osc_counter_out[1] sky130_fd_sc_hd__dfrtp_4
XFILLER_9_104 vssd1 vssd1 vccd1 vccd1 sky130_fd_sc_hd__decap_8
XFILLER_6_107 vssd1 vssd1 vccd1 vccd1 sky130_fd_sc_hd__decap_4
Xbuffers\[6\]._0_ buffers\[6\]._0_/A vssd1 vssd1 vccd1 vccd1 buffers\[7\]._0_/A sky130_fd_sc_hd__inv_2
XFILLER_12_65 vssd1 vssd1 vccd1 vccd1 sky130_fd_sc_hd__decap_12
X_277_ _280_/A _280_/B vssd1 vssd1 vccd1 vccd1 _277_/Y sky130_fd_sc_hd__nand2_1
X_200_ _200_/A _200_/B vssd1 vssd1 vccd1 vccd1 _301_/D sky130_fd_sc_hd__xor2_1
XFILLER_0_57 vssd1 vssd1 vccd1 vccd1 sky130_fd_sc_hd__decap_12
XFILLER_0_13 vssd1 vssd1 vccd1 vccd1 sky130_fd_sc_hd__decap_4
XFILLER_9_55 vssd1 vssd1 vccd1 vccd1 sky130_fd_sc_hd__fill_1
XFILLER_18_75 vssd1 vssd1 vccd1 vccd1 sky130_fd_sc_hd__decap_8
XFILLER_20_32 vssd1 vssd1 vccd1 vccd1 sky130_fd_sc_hd__decap_12
XFILLER_13_3 vssd1 vssd1 vccd1 vccd1 sky130_fd_sc_hd__decap_12
XTAP_112 vssd1 vccd1 sky130_fd_sc_hd__tapvpwrvgnd_1
XTAP_101 vssd1 vccd1 sky130_fd_sc_hd__tapvpwrvgnd_1
XFILLER_13_101 vssd1 vssd1 vccd1 vccd1 sky130_fd_sc_hd__decap_4
XFILLER_3_35 vssd1 vssd1 vccd1 vccd1 sky130_fd_sc_hd__decap_4
X_293_ _276_/Y _293_/D _210_/Y vssd1 vssd1 vccd1 vccd1 ring_osc_counter_out[0] sky130_fd_sc_hd__dfrtp_4
XFILLER_12_77 vssd1 vssd1 vccd1 vccd1 sky130_fd_sc_hd__decap_6
X_276_ _280_/A _280_/B vssd1 vssd1 vccd1 vccd1 _276_/Y sky130_fd_sc_hd__nand2_1
XFILLER_2_133 vssd1 vssd1 vccd1 vccd1 sky130_fd_sc_hd__decap_6
XFILLER_2_100 vssd1 vssd1 vccd1 vccd1 sky130_fd_sc_hd__decap_4
XFILLER_0_69 vssd1 vssd1 vccd1 vccd1 sky130_fd_sc_hd__decap_4
X_259_ ring_osc_counter_out[0] ring_osc_counter_out[1] ring_osc_counter_out[2] vssd1
+ vssd1 vccd1 vccd1 _263_/B sky130_fd_sc_hd__and3_1
XFILLER_9_23 vssd1 vssd1 vccd1 vccd1 sky130_fd_sc_hd__decap_4
XFILLER_9_78 vssd1 vssd1 vccd1 vccd1 sky130_fd_sc_hd__decap_3
Xbuffers\[5\]._0_ buffers\[5\]._0_/A vssd1 vssd1 vccd1 vccd1 buffers\[6\]._0_/A sky130_fd_sc_hd__inv_2
XFILLER_18_65 vssd1 vssd1 vccd1 vccd1 sky130_fd_sc_hd__decap_4
XFILLER_15_7 vssd1 vssd1 vccd1 vccd1 sky130_fd_sc_hd__decap_4
XFILLER_20_99 vssd1 vssd1 vccd1 vccd1 sky130_fd_sc_hd__decap_4
XFILLER_20_44 vssd1 vssd1 vccd1 vccd1 sky130_fd_sc_hd__decap_8
XFILLER_15_55 vssd1 vssd1 vccd1 vccd1 sky130_fd_sc_hd__fill_1
XFILLER_16_110 vssd1 vssd1 vccd1 vccd1 sky130_fd_sc_hd__decap_12
XTAP_113 vssd1 vccd1 sky130_fd_sc_hd__tapvpwrvgnd_1
XFILLER_22_146 vssd1 vssd1 vccd1 vccd1 sky130_fd_sc_hd__decap_4
XFILLER_22_135 vssd1 vssd1 vccd1 vccd1 sky130_fd_sc_hd__decap_4
XTAP_102 vssd1 vccd1 sky130_fd_sc_hd__tapvpwrvgnd_1
XFILLER_13_113 vssd1 vssd1 vccd1 vccd1 sky130_fd_sc_hd__decap_3
X_292_ _292_/A vssd1 vssd1 vccd1 vccd1 _292_/Y sky130_fd_sc_hd__inv_2
XFILLER_10_138 vssd1 vssd1 vccd1 vccd1 sky130_fd_sc_hd__fill_2
XFILLER_10_149 vssd1 vssd1 vccd1 vccd1 sky130_fd_sc_hd__fill_2
X_275_ _283_/B vssd1 vssd1 vccd1 vccd1 _280_/B sky130_fd_sc_hd__dlymetal6s2s_1
XFILLER_4_90 vssd1 vssd1 vccd1 vccd1 sky130_fd_sc_hd__decap_4
XFILLER_23_44 vssd1 vssd1 vccd1 vccd1 sky130_fd_sc_hd__decap_3
XFILLER_2_123 vssd1 vssd1 vccd1 vccd1 sky130_fd_sc_hd__decap_6
XFILLER_0_37 vssd1 vssd1 vccd1 vccd1 sky130_fd_sc_hd__decap_4
XFILLER_3_3 vssd1 vssd1 vccd1 vccd1 sky130_fd_sc_hd__fill_1
XFILLER_9_35 vssd1 vssd1 vccd1 vccd1 sky130_fd_sc_hd__decap_12
X_258_ ring_osc_counter_out[0] ring_osc_counter_out[1] vssd1 vssd1 vccd1 vccd1 _294_/D
+ sky130_fd_sc_hd__xor2_1
X_189_ _200_/B _186_/C counter_out[5] vssd1 vssd1 vccd1 vccd1 _190_/B sky130_fd_sc_hd__a21oi_1
XFILLER_20_12 vssd1 vssd1 vccd1 vccd1 sky130_fd_sc_hd__decap_4
Xbuffers\[4\]._0_ buffers\[4\]._0_/A vssd1 vssd1 vccd1 vccd1 buffers\[5\]._0_/A sky130_fd_sc_hd__inv_2
XFILLER_6_58 vssd1 vssd1 vccd1 vccd1 sky130_fd_sc_hd__fill_2
XFILLER_25_122 vssd1 vssd1 vccd1 vccd1 sky130_fd_sc_hd__decap_4
XFILLER_16_144 vssd1 vssd1 vccd1 vccd1 sky130_fd_sc_hd__decap_6
XFILLER_16_122 vssd1 vssd1 vccd1 vccd1 sky130_fd_sc_hd__decap_8
XTAP_114 vssd1 vccd1 sky130_fd_sc_hd__tapvpwrvgnd_1
XFILLER_22_125 vssd1 vssd1 vccd1 vccd1 sky130_fd_sc_hd__decap_3
XTAP_103 vssd1 vccd1 sky130_fd_sc_hd__tapvpwrvgnd_1
XFILLER_13_147 vssd1 vssd1 vccd1 vccd1 sky130_fd_sc_hd__decap_4
X_291_ _291_/A vssd1 vssd1 vccd1 vccd1 _291_/Y sky130_fd_sc_hd__inv_2
XFILLER_12_13 vssd1 vssd1 vccd1 vccd1 sky130_fd_sc_hd__decap_4
XFILLER_12_24 vssd1 vssd1 vccd1 vccd1 sky130_fd_sc_hd__decap_4
X_274_ _283_/A vssd1 vssd1 vccd1 vccd1 _280_/A sky130_fd_sc_hd__dlymetal6s2s_1
XFILLER_23_23 vssd1 vssd1 vccd1 vccd1 sky130_fd_sc_hd__fill_1
X_257_ _256_/C _237_/B _238_/B _256_/X vssd1 vssd1 vccd1 vccd1 _314_/A sky130_fd_sc_hd__a22o_1
XFILLER_9_47 vssd1 vssd1 vccd1 vccd1 sky130_fd_sc_hd__decap_8
X_188_ counter_out[6] _190_/A vssd1 vssd1 vccd1 vccd1 _307_/D sky130_fd_sc_hd__xor2_1
XFILLER_18_34 vssd1 vssd1 vccd1 vccd1 sky130_fd_sc_hd__decap_12
X_309_ _309_/A vssd1 vssd1 vccd1 vccd1 sum_out[0] sky130_fd_sc_hd__buf_2
XFILLER_20_24 vssd1 vssd1 vccd1 vccd1 sky130_fd_sc_hd__decap_4
XFILLER_6_26 vssd1 vssd1 vccd1 vccd1 sky130_fd_sc_hd__fill_2
XFILLER_15_68 vssd1 vssd1 vccd1 vccd1 sky130_fd_sc_hd__decap_12
XFILLER_15_57 vssd1 vssd1 vccd1 vccd1 sky130_fd_sc_hd__decap_4
XTAP_115 vssd1 vccd1 sky130_fd_sc_hd__tapvpwrvgnd_1
XTAP_104 vssd1 vccd1 sky130_fd_sc_hd__tapvpwrvgnd_1
XFILLER_11_3 vssd1 vssd1 vccd1 vccd1 sky130_fd_sc_hd__fill_1
Xbuffers\[3\]._0_ buffers\[3\]._0_/A vssd1 vssd1 vccd1 vccd1 buffers\[4\]._0_/A sky130_fd_sc_hd__inv_2
X_290_ _291_/A vssd1 vssd1 vccd1 vccd1 _290_/Y sky130_fd_sc_hd__inv_2
XFILLER_9_119 vssd1 vssd1 vccd1 vccd1 sky130_fd_sc_hd__fill_1
XFILLER_8_141 vssd1 vssd1 vccd1 vccd1 sky130_fd_sc_hd__decap_8
X_273_ ring_osc_counter_out[7] _273_/B vssd1 vssd1 vccd1 vccd1 _300_/D sky130_fd_sc_hd__xnor2_1
XFILLER_5_144 vssd1 vssd1 vccd1 vccd1 sky130_fd_sc_hd__decap_6
XFILLER_23_57 vssd1 vssd1 vccd1 vccd1 sky130_fd_sc_hd__decap_4
XFILLER_2_147 vssd1 vssd1 vccd1 vccd1 sky130_fd_sc_hd__decap_4
X_256_ _256_/A _256_/B _256_/C vssd1 vssd1 vccd1 vccd1 _256_/X sky130_fd_sc_hd__or3_1
X_187_ counter_out[6] _190_/A counter_out[7] vssd1 vssd1 vccd1 vccd1 _308_/D sky130_fd_sc_hd__a21o_1
XFILLER_18_46 vssd1 vssd1 vccd1 vccd1 sky130_fd_sc_hd__decap_12
XFILLER_18_24 vssd1 vssd1 vccd1 vccd1 sky130_fd_sc_hd__decap_4
X_239_ _240_/A _240_/B vssd1 vssd1 vccd1 vccd1 _245_/A sky130_fd_sc_hd__nand2_1
XFILLER_1_60 vssd1 vssd1 vccd1 vccd1 sky130_fd_sc_hd__decap_6
X_308_ _308_/CLK _308_/D _292_/Y vssd1 vssd1 vccd1 vccd1 counter_out[7] sky130_fd_sc_hd__dfrtp_4
XFILLER_20_69 vssd1 vssd1 vccd1 vccd1 sky130_fd_sc_hd__decap_12
XFILLER_19_143 vssd1 vssd1 vccd1 vccd1 sky130_fd_sc_hd__decap_8
XFILLER_6_38 vssd1 vssd1 vccd1 vccd1 sky130_fd_sc_hd__decap_12
XFILLER_25_113 vssd1 vssd1 vccd1 vccd1 sky130_fd_sc_hd__decap_6
XFILLER_15_25 vssd1 vssd1 vccd1 vccd1 sky130_fd_sc_hd__decap_12
XTAP_116 vssd1 vccd1 sky130_fd_sc_hd__tapvpwrvgnd_1
XTAP_105 vssd1 vccd1 sky130_fd_sc_hd__tapvpwrvgnd_1
XFILLER_16_102 vssd1 vssd1 vccd1 vccd1 sky130_fd_sc_hd__decap_4
XFILLER_7_81 vssd1 vssd1 vccd1 vccd1 sky130_fd_sc_hd__decap_4
XFILLER_3_39 vssd1 vssd1 vccd1 vccd1 sky130_fd_sc_hd__fill_1
X_272_ _272_/A vssd1 vssd1 vccd1 vccd1 _299_/D sky130_fd_sc_hd__clkbuf_1
XFILLER_23_69 vssd1 vssd1 vccd1 vccd1 sky130_fd_sc_hd__decap_6
XFILLER_23_36 vssd1 vssd1 vccd1 vccd1 sky130_fd_sc_hd__decap_8
XFILLER_4_60 vssd1 vssd1 vccd1 vccd1 sky130_fd_sc_hd__decap_6
Xbuffers\[2\]._0_ buffers\[2\]._0_/A vssd1 vssd1 vccd1 vccd1 buffers\[3\]._0_/A sky130_fd_sc_hd__inv_2
X_255_ _253_/A _254_/A _222_/Y vssd1 vssd1 vccd1 vccd1 _256_/C sky130_fd_sc_hd__a21oi_1
XFILLER_0_29 vssd1 vssd1 vccd1 vccd1 sky130_fd_sc_hd__decap_4
XFILLER_9_16 vssd1 vssd1 vccd1 vccd1 sky130_fd_sc_hd__decap_4
X_186_ counter_out[5] _200_/B _186_/C vssd1 vssd1 vccd1 vccd1 _190_/A sky130_fd_sc_hd__and3_1
XFILLER_1_3 vssd1 vssd1 vccd1 vccd1 sky130_fd_sc_hd__decap_4
X_169_ _167_/X _168_/Y counter_out[1] vssd1 vssd1 vccd1 vccd1 _169_/X sky130_fd_sc_hd__a21o_1
X_307_ _308_/CLK _307_/D _291_/Y vssd1 vssd1 vccd1 vccd1 counter_out[6] sky130_fd_sc_hd__dfrtp_4
X_238_ _238_/A _238_/B vssd1 vssd1 vccd1 vccd1 _315_/A sky130_fd_sc_hd__xnor2_1
XFILLER_25_147 vssd1 vssd1 vccd1 vccd1 sky130_fd_sc_hd__decap_4
XFILLER_25_136 vssd1 vssd1 vccd1 vccd1 sky130_fd_sc_hd__decap_4
XFILLER_15_37 vssd1 vssd1 vccd1 vccd1 sky130_fd_sc_hd__decap_12
XFILLER_16_136 vssd1 vssd1 vccd1 vccd1 sky130_fd_sc_hd__decap_4
XTAP_117 vssd1 vccd1 sky130_fd_sc_hd__tapvpwrvgnd_1
XFILLER_22_139 vssd1 vssd1 vccd1 vccd1 sky130_fd_sc_hd__fill_1
XFILLER_22_117 vssd1 vssd1 vccd1 vccd1 sky130_fd_sc_hd__decap_8
XTAP_106 vssd1 vccd1 sky130_fd_sc_hd__tapvpwrvgnd_1
XPHY_0 vssd1 vssd1 vccd1 vccd1 sky130_fd_sc_hd__decap_3
XFILLER_12_150 vssd1 vssd1 vccd1 vccd1 sky130_fd_sc_hd__fill_1
XFILLER_8_132 vssd1 vssd1 vccd1 vccd1 sky130_fd_sc_hd__decap_8
X_271_ _273_/B _271_/B vssd1 vssd1 vccd1 vccd1 _272_/A sky130_fd_sc_hd__and2_1
XFILLER_5_113 vssd1 vssd1 vccd1 vccd1 sky130_fd_sc_hd__fill_1
XFILLER_23_15 vssd1 vssd1 vccd1 vccd1 sky130_fd_sc_hd__decap_8
XFILLER_4_83 vssd1 vssd1 vccd1 vccd1 sky130_fd_sc_hd__fill_1
X_254_ _254_/A _254_/B vssd1 vssd1 vccd1 vccd1 _313_/A sky130_fd_sc_hd__xor2_1
XFILLER_13_92 vssd1 vssd1 vccd1 vccd1 sky130_fd_sc_hd__fill_2
X_185_ counter_out[4] _191_/B vssd1 vssd1 vccd1 vccd1 _186_/C sky130_fd_sc_hd__and2_1
XFILLER_2_116 vssd1 vssd1 vccd1 vccd1 sky130_fd_sc_hd__decap_4
XFILLER_3_7 vssd1 vssd1 vccd1 vccd1 sky130_fd_sc_hd__decap_4
XFILLER_18_15 vssd1 vssd1 vccd1 vccd1 sky130_fd_sc_hd__decap_6
X_168_ _177_/B _168_/B vssd1 vssd1 vccd1 vccd1 _168_/Y sky130_fd_sc_hd__nand2_1
X_237_ _237_/A _237_/B vssd1 vssd1 vccd1 vccd1 _238_/B sky130_fd_sc_hd__nor2_1
Xbuffers\[1\]._0_ buffers\[1\]._0_/A vssd1 vssd1 vccd1 vccd1 buffers\[2\]._0_/A sky130_fd_sc_hd__inv_2
X_306_ _308_/CLK _306_/D _290_/Y vssd1 vssd1 vccd1 vccd1 counter_out[5] sky130_fd_sc_hd__dfrtp_4
XFILLER_6_18 vssd1 vssd1 vccd1 vccd1 sky130_fd_sc_hd__decap_8
XFILLER_6_29 vssd1 vssd1 vccd1 vccd1 sky130_fd_sc_hd__decap_6
XFILLER_10_82 vssd1 vssd1 vccd1 vccd1 sky130_fd_sc_hd__fill_2
XFILLER_25_104 vssd1 vssd1 vccd1 vccd1 sky130_fd_sc_hd__decap_8
XFILLER_15_49 vssd1 vssd1 vccd1 vccd1 sky130_fd_sc_hd__decap_6
XFILLER_15_16 vssd1 vssd1 vccd1 vccd1 sky130_fd_sc_hd__decap_4
XTAP_118 vssd1 vccd1 sky130_fd_sc_hd__tapvpwrvgnd_1
XFILLER_22_107 vssd1 vssd1 vccd1 vccd1 sky130_fd_sc_hd__decap_4
XTAP_107 vssd1 vccd1 sky130_fd_sc_hd__tapvpwrvgnd_1
XPHY_1 vssd1 vssd1 vccd1 vccd1 sky130_fd_sc_hd__decap_3
XFILLER_21_140 vssd1 vssd1 vccd1 vccd1 sky130_fd_sc_hd__decap_8
XFILLER_16_70 vssd1 vssd1 vccd1 vccd1 sky130_fd_sc_hd__decap_12
X_270_ ring_osc_counter_out[6] _270_/B vssd1 vssd1 vccd1 vccd1 _271_/B sky130_fd_sc_hd__or2_1
XFILLER_2_139 vssd1 vssd1 vccd1 vccd1 sky130_fd_sc_hd__fill_1
X_253_ _253_/A _253_/B vssd1 vssd1 vccd1 vccd1 _254_/B sky130_fd_sc_hd__nand2_1
X_184_ counter_out[3] counter_out[2] _196_/A _200_/A vssd1 vssd1 vccd1 vccd1 _191_/B
+ sky130_fd_sc_hd__and4_1
XFILLER_24_81 vssd1 vssd1 vccd1 vccd1 sky130_fd_sc_hd__decap_3
X_167_ _177_/B _168_/B vssd1 vssd1 vccd1 vccd1 _167_/X sky130_fd_sc_hd__or2_1
X_305_ _308_/CLK _305_/D _289_/Y vssd1 vssd1 vccd1 vccd1 counter_out[4] sky130_fd_sc_hd__dfrtp_4
X_236_ _236_/A _236_/B vssd1 vssd1 vccd1 vccd1 _238_/A sky130_fd_sc_hd__xor2_1
XFILLER_19_113 vssd1 vssd1 vccd1 vccd1 sky130_fd_sc_hd__decap_6
XFILLER_10_94 vssd1 vssd1 vccd1 vccd1 sky130_fd_sc_hd__decap_4
X_219_ _215_/Y _246_/A _246_/B _248_/B vssd1 vssd1 vccd1 vccd1 _251_/A sky130_fd_sc_hd__a31o_1
XFILLER_19_92 vssd1 vssd1 vccd1 vccd1 sky130_fd_sc_hd__decap_4
XFILLER_19_81 vssd1 vssd1 vccd1 vccd1 sky130_fd_sc_hd__decap_6
Xbuffers\[0\]._0_ _235_/X vssd1 vssd1 vccd1 vccd1 buffers\[1\]._0_/A sky130_fd_sc_hd__inv_2
XTAP_119 vssd1 vccd1 sky130_fd_sc_hd__tapvpwrvgnd_1
XTAP_108 vssd1 vccd1 sky130_fd_sc_hd__tapvpwrvgnd_1
Xclkbuf_0_clk clk vssd1 vssd1 vccd1 vccd1 clkbuf_0_clk/X sky130_fd_sc_hd__clkbuf_16
XPHY_2 vssd1 vssd1 vccd1 vccd1 sky130_fd_sc_hd__decap_3
XFILLER_13_108 vssd1 vssd1 vccd1 vccd1 sky130_fd_sc_hd__decap_4
XFILLER_16_82 vssd1 vssd1 vccd1 vccd1 sky130_fd_sc_hd__fill_2
XFILLER_8_101 vssd1 vssd1 vccd1 vccd1 sky130_fd_sc_hd__fill_1
XFILLER_12_29 vssd1 vssd1 vccd1 vccd1 sky130_fd_sc_hd__decap_12
XFILLER_5_104 vssd1 vssd1 vccd1 vccd1 sky130_fd_sc_hd__fill_1
XFILLER_23_28 vssd1 vssd1 vccd1 vccd1 sky130_fd_sc_hd__decap_4
XFILLER_2_129 vssd1 vssd1 vccd1 vccd1 sky130_fd_sc_hd__fill_1
X_252_ _252_/A _252_/B vssd1 vssd1 vccd1 vccd1 _253_/B sky130_fd_sc_hd__or2_1
X_183_ counter_out[0] vssd1 vssd1 vccd1 vccd1 _200_/A sky130_fd_sc_hd__dlymetal6s2s_1
X_304_ _304_/CLK _304_/D _288_/Y vssd1 vssd1 vccd1 vccd1 counter_out[3] sky130_fd_sc_hd__dfrtp_4
X_235_ _235_/A _235_/B vssd1 vssd1 vccd1 vccd1 _235_/X sky130_fd_sc_hd__xor2_1
X_166_ counter_out[3] _162_/Y _165_/X vssd1 vssd1 vccd1 vccd1 _166_/X sky130_fd_sc_hd__o21a_1
XFILLER_1_86 vssd1 vssd1 vccd1 vccd1 sky130_fd_sc_hd__decap_12
X_149_ counter_out[4] _158_/B vssd1 vssd1 vccd1 vccd1 _149_/X sky130_fd_sc_hd__or2_1
XFILLER_19_136 vssd1 vssd1 vccd1 vccd1 sky130_fd_sc_hd__decap_4
XFILLER_19_125 vssd1 vssd1 vccd1 vccd1 sky130_fd_sc_hd__decap_4
XFILLER_19_60 vssd1 vssd1 vccd1 vccd1 sky130_fd_sc_hd__decap_4
X_218_ _247_/A _247_/B vssd1 vssd1 vccd1 vccd1 _248_/B sky130_fd_sc_hd__nor2_1
XTAP_109 vssd1 vccd1 sky130_fd_sc_hd__tapvpwrvgnd_1
XPHY_3 vssd1 vssd1 vccd1 vccd1 sky130_fd_sc_hd__decap_3
XFILLER_21_131 vssd1 vssd1 vccd1 vccd1 sky130_fd_sc_hd__decap_4
XFILLER_2_108 vssd1 vssd1 vccd1 vccd1 sky130_fd_sc_hd__decap_4
XFILLER_4_97 vssd1 vssd1 vccd1 vccd1 sky130_fd_sc_hd__decap_8
X_251_ _251_/A _251_/B vssd1 vssd1 vccd1 vccd1 _312_/A sky130_fd_sc_hd__xor2_1
XFILLER_13_84 vssd1 vssd1 vccd1 vccd1 sky130_fd_sc_hd__decap_8
X_182_ _196_/C vssd1 vssd1 vccd1 vccd1 _200_/B sky130_fd_sc_hd__dlymetal6s2s_1
XFILLER_24_61 vssd1 vssd1 vccd1 vccd1 sky130_fd_sc_hd__decap_4
X_165_ _171_/B _171_/C counter_out[2] vssd1 vssd1 vccd1 vccd1 _165_/X sky130_fd_sc_hd__a21o_1
X_303_ _304_/CLK _303_/D _287_/Y vssd1 vssd1 vccd1 vccd1 counter_out[2] sky130_fd_sc_hd__dfrtp_4
XFILLER_1_98 vssd1 vssd1 vccd1 vccd1 sky130_fd_sc_hd__decap_12
XFILLER_1_32 vssd1 vssd1 vccd1 vccd1 sky130_fd_sc_hd__decap_4
X_234_ _234_/A1 _316_/A _233_/X vssd1 vssd1 vccd1 vccd1 _235_/B sky130_fd_sc_hd__o21ba_1
X_148_ _148_/A _148_/B vssd1 vssd1 vccd1 vccd1 _158_/B sky130_fd_sc_hd__xor2_1
X_217_ _243_/A _243_/B _240_/A _240_/B vssd1 vssd1 vccd1 vccd1 _246_/B sky130_fd_sc_hd__o211ai_1
XFILLER_19_104 vssd1 vssd1 vccd1 vccd1 sky130_fd_sc_hd__decap_8
XFILLER_19_50 vssd1 vssd1 vccd1 vccd1 sky130_fd_sc_hd__decap_6
XFILLER_10_74 vssd1 vssd1 vccd1 vccd1 sky130_fd_sc_hd__decap_8
XFILLER_10_85 vssd1 vssd1 vccd1 vccd1 sky130_fd_sc_hd__decap_4
XPHY_4 vssd1 vssd1 vccd1 vccd1 sky130_fd_sc_hd__decap_3
XFILLER_21_121 vssd1 vssd1 vccd1 vccd1 sky130_fd_sc_hd__decap_4
XFILLER_8_125 vssd1 vssd1 vccd1 vccd1 sky130_fd_sc_hd__decap_3
XFILLER_5_117 vssd1 vssd1 vccd1 vccd1 sky130_fd_sc_hd__decap_4
XFILLER_4_21 vssd1 vssd1 vccd1 vccd1 sky130_fd_sc_hd__decap_6
X_250_ _250_/A _250_/B vssd1 vssd1 vccd1 vccd1 _251_/B sky130_fd_sc_hd__nand2_1
X_181_ _156_/X _174_/X _180_/Y vssd1 vssd1 vccd1 vccd1 _196_/C sky130_fd_sc_hd__a21oi_1
XFILLER_13_41 vssd1 vssd1 vccd1 vccd1 sky130_fd_sc_hd__decap_12
Xbuffers\[19\]._0_ buffers\[19\]._0_/A vssd1 vssd1 vccd1 vccd1 buffers\[20\]._0_/A
+ sky130_fd_sc_hd__inv_2
X_164_ _177_/B _168_/B _161_/C vssd1 vssd1 vccd1 vccd1 _171_/C sky130_fd_sc_hd__o21ai_1
XFILLER_1_11 vssd1 vssd1 vccd1 vccd1 sky130_fd_sc_hd__decap_4
X_233_ _283_/A _283_/B _234_/A1 _292_/A vssd1 vssd1 vccd1 vccd1 _233_/X sky130_fd_sc_hd__a31o_1
X_302_ _304_/CLK _302_/D _285_/Y vssd1 vssd1 vccd1 vccd1 counter_out[1] sky130_fd_sc_hd__dfrtp_4
X_216_ _243_/A _243_/B vssd1 vssd1 vccd1 vccd1 _246_/A sky130_fd_sc_hd__nand2_1
XFILLER_18_3 vssd1 vssd1 vccd1 vccd1 sky130_fd_sc_hd__decap_12
X_147_ counter_out[7] _143_/X _146_/X counter_out[6] vssd1 vssd1 vccd1 vccd1 _180_/A
+ sky130_fd_sc_hd__o22ai_1
XFILLER_24_141 vssd1 vssd1 vccd1 vccd1 sky130_fd_sc_hd__fill_2
XFILLER_21_74 vssd1 vssd1 vccd1 vccd1 sky130_fd_sc_hd__decap_6
XFILLER_21_52 vssd1 vssd1 vccd1 vccd1 sky130_fd_sc_hd__decap_4
XPHY_5 vssd1 vssd1 vccd1 vccd1 sky130_fd_sc_hd__decap_3
XFILLER_7_21 vssd1 vssd1 vccd1 vccd1 sky130_fd_sc_hd__decap_4
XFILLER_16_85 vssd1 vssd1 vccd1 vccd1 sky130_fd_sc_hd__decap_12
XFILLER_16_41 vssd1 vssd1 vccd1 vccd1 sky130_fd_sc_hd__decap_8
XFILLER_12_144 vssd1 vssd1 vccd1 vccd1 sky130_fd_sc_hd__decap_6
XFILLER_4_33 vssd1 vssd1 vccd1 vccd1 sky130_fd_sc_hd__decap_4
XFILLER_4_66 vssd1 vssd1 vccd1 vccd1 sky130_fd_sc_hd__fill_1
XFILLER_4_77 vssd1 vssd1 vccd1 vccd1 sky130_fd_sc_hd__decap_6
X_180_ _180_/A _180_/B _180_/C _180_/D vssd1 vssd1 vccd1 vccd1 _180_/Y sky130_fd_sc_hd__nor4_1
XFILLER_13_53 vssd1 vssd1 vccd1 vccd1 sky130_fd_sc_hd__decap_3
XFILLER_1_110 vssd1 vssd1 vccd1 vccd1 sky130_fd_sc_hd__fill_2
XFILLER_24_85 vssd1 vssd1 vccd1 vccd1 sky130_fd_sc_hd__decap_12
XFILLER_24_41 vssd1 vssd1 vccd1 vccd1 sky130_fd_sc_hd__decap_12
X_163_ _163_/A vssd1 vssd1 vccd1 vccd1 _177_/B sky130_fd_sc_hd__dlymetal6s2s_1
X_232_ _232_/A vssd1 vssd1 vccd1 vccd1 _283_/B sky130_fd_sc_hd__dlymetal6s2s_1
X_301_ _304_/CLK _301_/D _284_/Y vssd1 vssd1 vccd1 vccd1 counter_out[0] sky130_fd_sc_hd__dfrtp_4
XFILLER_1_78 vssd1 vssd1 vccd1 vccd1 sky130_fd_sc_hd__decap_4
Xbuffers\[18\]._0_ buffers\[18\]._0_/A vssd1 vssd1 vccd1 vccd1 buffers\[19\]._0_/A
+ sky130_fd_sc_hd__inv_2
X_146_ _146_/A _152_/B vssd1 vssd1 vccd1 vccd1 _146_/X sky130_fd_sc_hd__xor2_1
XFILLER_18_150 vssd1 vssd1 vccd1 vccd1 sky130_fd_sc_hd__fill_1
X_215_ _247_/A _247_/B vssd1 vssd1 vccd1 vccd1 _215_/Y sky130_fd_sc_hd__nand2_1
XFILLER_21_97 vssd1 vssd1 vccd1 vccd1 sky130_fd_sc_hd__decap_4
XFILLER_21_86 vssd1 vssd1 vccd1 vccd1 sky130_fd_sc_hd__decap_4
XFILLER_21_64 vssd1 vssd1 vccd1 vccd1 sky130_fd_sc_hd__decap_4
XFILLER_21_31 vssd1 vssd1 vccd1 vccd1 sky130_fd_sc_hd__decap_12
XPHY_6 vssd1 vssd1 vccd1 vccd1 sky130_fd_sc_hd__decap_3
XFILLER_7_88 vssd1 vssd1 vccd1 vccd1 sky130_fd_sc_hd__decap_12
XFILLER_8_105 vssd1 vssd1 vccd1 vccd1 sky130_fd_sc_hd__decap_12
XFILLER_8_149 vssd1 vssd1 vccd1 vccd1 sky130_fd_sc_hd__fill_2
XFILLER_5_108 vssd1 vssd1 vccd1 vccd1 sky130_fd_sc_hd__decap_4
XFILLER_4_141 vssd1 vssd1 vccd1 vccd1 sky130_fd_sc_hd__fill_2
XFILLER_13_76 vssd1 vssd1 vccd1 vccd1 sky130_fd_sc_hd__decap_3
XFILLER_1_133 vssd1 vssd1 vccd1 vccd1 sky130_fd_sc_hd__decap_4
XFILLER_8_3 vssd1 vssd1 vccd1 vccd1 sky130_fd_sc_hd__decap_3
XFILLER_24_53 vssd1 vssd1 vccd1 vccd1 sky130_fd_sc_hd__fill_1
X_162_ _141_/D _171_/B _148_/B vssd1 vssd1 vccd1 vccd1 _162_/Y sky130_fd_sc_hd__a21boi_1
X_231_ _231_/A vssd1 vssd1 vccd1 vccd1 _283_/A sky130_fd_sc_hd__dlymetal6s2s_1
X_300_ _283_/Y _300_/D _202_/Y vssd1 vssd1 vccd1 vccd1 ring_osc_counter_out[7] sky130_fd_sc_hd__dfrtp_4
Xinput1 a_input[0] vssd1 vssd1 vccd1 vccd1 _240_/B sky130_fd_sc_hd__dlymetal6s2s_1
XTAP_90 vssd1 vccd1 sky130_fd_sc_hd__tapvpwrvgnd_1
XFILLER_25_6 vssd1 vssd1 vccd1 vccd1 sky130_fd_sc_hd__decap_4
X_145_ _148_/A _145_/B _148_/B vssd1 vssd1 vccd1 vccd1 _152_/B sky130_fd_sc_hd__or3_1
X_214_ _220_/A _220_/B vssd1 vssd1 vccd1 vccd1 _250_/A sky130_fd_sc_hd__nand2_1
XFILLER_24_121 vssd1 vssd1 vccd1 vccd1 sky130_fd_sc_hd__decap_12
XFILLER_21_43 vssd1 vssd1 vccd1 vccd1 sky130_fd_sc_hd__decap_4
XFILLER_15_121 vssd1 vssd1 vccd1 vccd1 sky130_fd_sc_hd__decap_3
XPHY_7 vssd1 vssd1 vccd1 vccd1 sky130_fd_sc_hd__decap_3
XFILLER_23_3 vssd1 vssd1 vccd1 vccd1 sky130_fd_sc_hd__decap_12
XFILLER_21_113 vssd1 vssd1 vccd1 vccd1 sky130_fd_sc_hd__decap_4
Xbuffers\[17\]._0_ buffers\[17\]._0_/A vssd1 vssd1 vccd1 vccd1 buffers\[18\]._0_/A
+ sky130_fd_sc_hd__inv_2
XFILLER_8_117 vssd1 vssd1 vccd1 vccd1 sky130_fd_sc_hd__decap_8
XFILLER_13_22 vssd1 vssd1 vccd1 vccd1 sky130_fd_sc_hd__decap_4
X_161_ _163_/A _168_/B _161_/C vssd1 vssd1 vccd1 vccd1 _171_/B sky130_fd_sc_hd__or3_1
X_230_ _230_/A _230_/B vssd1 vssd1 vccd1 vccd1 _316_/A sky130_fd_sc_hd__xnor2_1
XFILLER_1_69 vssd1 vssd1 vccd1 vccd1 sky130_fd_sc_hd__decap_4
XFILLER_1_25 vssd1 vssd1 vccd1 vccd1 sky130_fd_sc_hd__decap_4
XTAP_91 vssd1 vccd1 sky130_fd_sc_hd__tapvpwrvgnd_1
Xinput2 a_input[1] vssd1 vssd1 vccd1 vccd1 _243_/B sky130_fd_sc_hd__dlymetal6s2s_1
XFILLER_10_23 vssd1 vssd1 vccd1 vccd1 sky130_fd_sc_hd__decap_4
XTAP_80 vssd1 vccd1 sky130_fd_sc_hd__tapvpwrvgnd_1
X_144_ _144_/A vssd1 vssd1 vccd1 vccd1 _148_/B sky130_fd_sc_hd__dlymetal6s2s_1
XFILLER_19_119 vssd1 vssd1 vccd1 vccd1 sky130_fd_sc_hd__fill_1
XFILLER_19_87 vssd1 vssd1 vccd1 vccd1 sky130_fd_sc_hd__fill_1
X_213_ _252_/A _252_/B vssd1 vssd1 vccd1 vccd1 _253_/A sky130_fd_sc_hd__nand2_1
XFILLER_10_89 vssd1 vssd1 vccd1 vccd1 sky130_fd_sc_hd__fill_1
XFILLER_16_3 vssd1 vssd1 vccd1 vccd1 sky130_fd_sc_hd__decap_6
XFILLER_15_111 vssd1 vssd1 vccd1 vccd1 sky130_fd_sc_hd__fill_1
XPHY_8 vssd1 vssd1 vccd1 vccd1 sky130_fd_sc_hd__decap_3
XFILLER_7_35 vssd1 vssd1 vccd1 vccd1 sky130_fd_sc_hd__decap_6
XFILLER_7_57 vssd1 vssd1 vccd1 vccd1 sky130_fd_sc_hd__decap_12
XFILLER_16_22 vssd1 vssd1 vccd1 vccd1 sky130_fd_sc_hd__decap_6
XFILLER_12_125 vssd1 vssd1 vccd1 vccd1 sky130_fd_sc_hd__decap_12
Xbuffers\[16\]._0_ buffers\[16\]._0_/A vssd1 vssd1 vccd1 vccd1 buffers\[17\]._0_/A
+ sky130_fd_sc_hd__inv_2
XFILLER_1_113 vssd1 vssd1 vccd1 vccd1 sky130_fd_sc_hd__decap_12
X_160_ _160_/A _160_/B _160_/C _160_/D vssd1 vssd1 vccd1 vccd1 _180_/C sky130_fd_sc_hd__or4_1
XFILLER_1_48 vssd1 vssd1 vccd1 vccd1 sky130_fd_sc_hd__decap_8
XTAP_92 vssd1 vccd1 sky130_fd_sc_hd__tapvpwrvgnd_1
Xinput3 a_input[2] vssd1 vssd1 vccd1 vccd1 _247_/B sky130_fd_sc_hd__clkbuf_1
X_289_ _291_/A vssd1 vssd1 vccd1 vccd1 _289_/Y sky130_fd_sc_hd__inv_2
XTAP_70 vssd1 vccd1 sky130_fd_sc_hd__tapvpwrvgnd_1
XTAP_81 vssd1 vccd1 sky130_fd_sc_hd__tapvpwrvgnd_1
X_143_ _143_/A _154_/C vssd1 vssd1 vccd1 vccd1 _143_/X sky130_fd_sc_hd__xor2_1
X_212_ _143_/A _154_/C _180_/Y vssd1 vssd1 vccd1 vccd1 time_count_overflow sky130_fd_sc_hd__o21a_2
XFILLER_2_80 vssd1 vssd1 vccd1 vccd1 sky130_fd_sc_hd__decap_4
XPHY_9 vssd1 vssd1 vccd1 vccd1 sky130_fd_sc_hd__decap_3
XFILLER_7_14 vssd1 vssd1 vccd1 vccd1 sky130_fd_sc_hd__decap_4
XFILLER_7_69 vssd1 vssd1 vccd1 vccd1 sky130_fd_sc_hd__decap_12
XFILLER_21_148 vssd1 vssd1 vccd1 vccd1 sky130_fd_sc_hd__decap_3
XFILLER_16_12 vssd1 vssd1 vccd1 vccd1 sky130_fd_sc_hd__decap_4
XFILLER_12_137 vssd1 vssd1 vccd1 vccd1 sky130_fd_sc_hd__decap_3
XFILLER_13_68 vssd1 vssd1 vccd1 vccd1 sky130_fd_sc_hd__decap_8