* NGSPICE file created from instrumented_adder.ext - technology: sky130A

* Black-box entry subcircuit for sky130_fd_sc_hd__decap_4 abstract view
.subckt sky130_fd_sc_hd__decap_4 VGND VNB VPB VPWR
.ends

* Black-box entry subcircuit for sky130_fd_sc_hd__fill_1 abstract view
.subckt sky130_fd_sc_hd__fill_1 VGND VNB VPB VPWR
.ends

* Black-box entry subcircuit for sky130_fd_sc_hd__nand2_1 abstract view
.subckt sky130_fd_sc_hd__nand2_1 A B VGND VNB VPB VPWR Y
.ends

* Black-box entry subcircuit for sky130_fd_sc_hd__inv_2 abstract view
.subckt sky130_fd_sc_hd__inv_2 A VGND VNB VPB VPWR Y
.ends

* Black-box entry subcircuit for sky130_fd_sc_hd__decap_8 abstract view
.subckt sky130_fd_sc_hd__decap_8 VGND VNB VPB VPWR
.ends

* Black-box entry subcircuit for sky130_fd_sc_hd__nor2_1 abstract view
.subckt sky130_fd_sc_hd__nor2_1 A B VGND VNB VPB VPWR Y
.ends

* Black-box entry subcircuit for sky130_fd_sc_hd__xnor2_1 abstract view
.subckt sky130_fd_sc_hd__xnor2_1 A B VGND VNB VPB VPWR Y
.ends

* Black-box entry subcircuit for sky130_fd_sc_hd__decap_12 abstract view
.subckt sky130_fd_sc_hd__decap_12 VGND VNB VPB VPWR
.ends

* Black-box entry subcircuit for sky130_fd_sc_hd__decap_3 abstract view
.subckt sky130_fd_sc_hd__decap_3 VGND VNB VPB VPWR
.ends

* Black-box entry subcircuit for sky130_fd_sc_hd__tapvpwrvgnd_1 abstract view
.subckt sky130_fd_sc_hd__tapvpwrvgnd_1 VGND VPWR
.ends

* Black-box entry subcircuit for sky130_fd_sc_hd__decap_6 abstract view
.subckt sky130_fd_sc_hd__decap_6 VGND VNB VPB VPWR
.ends

* Black-box entry subcircuit for sky130_fd_sc_hd__a21oi_1 abstract view
.subckt sky130_fd_sc_hd__a21oi_1 A1 A2 B1 VGND VNB VPB VPWR Y
.ends

* Black-box entry subcircuit for sky130_fd_sc_hd__fill_2 abstract view
.subckt sky130_fd_sc_hd__fill_2 VGND VNB VPB VPWR
.ends

* Black-box entry subcircuit for sky130_fd_sc_hd__and3_1 abstract view
.subckt sky130_fd_sc_hd__and3_1 A B C VGND VNB VPB VPWR X
.ends

* Black-box entry subcircuit for sky130_fd_sc_hd__and3_2 abstract view
.subckt sky130_fd_sc_hd__and3_2 A B C VGND VNB VPB VPWR X
.ends

* Black-box entry subcircuit for sky130_fd_sc_hd__dlymetal6s2s_1 abstract view
.subckt sky130_fd_sc_hd__dlymetal6s2s_1 A VGND VNB VPB VPWR X
.ends

* Black-box entry subcircuit for sky130_fd_sc_hd__xor2_1 abstract view
.subckt sky130_fd_sc_hd__xor2_1 A B VGND VNB VPB VPWR X
.ends

* Black-box entry subcircuit for sky130_fd_sc_hd__nor4_1 abstract view
.subckt sky130_fd_sc_hd__nor4_1 A B C D VGND VNB VPB VPWR Y
.ends

* Black-box entry subcircuit for sky130_fd_sc_hd__nand2_4 abstract view
.subckt sky130_fd_sc_hd__nand2_4 A B VGND VNB VPB VPWR Y
.ends

* Black-box entry subcircuit for sky130_fd_sc_hd__dfrtp_4 abstract view
.subckt sky130_fd_sc_hd__dfrtp_4 CLK D RESET_B VGND VNB VPB VPWR Q
.ends

* Black-box entry subcircuit for sky130_fd_sc_hd__xnor2_4 abstract view
.subckt sky130_fd_sc_hd__xnor2_4 A B VGND VNB VPB VPWR Y
.ends

* Black-box entry subcircuit for sky130_fd_sc_hd__or4b_1 abstract view
.subckt sky130_fd_sc_hd__or4b_1 A B C D_N VGND VNB VPB VPWR X
.ends

* Black-box entry subcircuit for sky130_fd_sc_hd__or4_1 abstract view
.subckt sky130_fd_sc_hd__or4_1 A B C D VGND VNB VPB VPWR X
.ends

* Black-box entry subcircuit for sky130_fd_sc_hd__buf_2 abstract view
.subckt sky130_fd_sc_hd__buf_2 A VGND VNB VPB VPWR X
.ends

* Black-box entry subcircuit for sky130_fd_sc_hd__and2b_1 abstract view
.subckt sky130_fd_sc_hd__and2b_1 A_N B VGND VNB VPB VPWR X
.ends

* Black-box entry subcircuit for sky130_fd_sc_hd__a211o_1 abstract view
.subckt sky130_fd_sc_hd__a211o_1 A1 A2 B1 C1 VGND VNB VPB VPWR X
.ends

* Black-box entry subcircuit for sky130_fd_sc_hd__o22ai_2 abstract view
.subckt sky130_fd_sc_hd__o22ai_2 A1 A2 B1 B2 VGND VNB VPB VPWR Y
.ends

* Black-box entry subcircuit for sky130_fd_sc_hd__or3_1 abstract view
.subckt sky130_fd_sc_hd__or3_1 A B C VGND VNB VPB VPWR X
.ends

* Black-box entry subcircuit for sky130_fd_sc_hd__nand2_2 abstract view
.subckt sky130_fd_sc_hd__nand2_2 A B VGND VNB VPB VPWR Y
.ends

* Black-box entry subcircuit for sky130_fd_sc_hd__and2_1 abstract view
.subckt sky130_fd_sc_hd__and2_1 A B VGND VNB VPB VPWR X
.ends

* Black-box entry subcircuit for sky130_fd_sc_hd__a21o_1 abstract view
.subckt sky130_fd_sc_hd__a21o_1 A1 A2 B1 VGND VNB VPB VPWR X
.ends

* Black-box entry subcircuit for sky130_fd_sc_hd__clkinv_2 abstract view
.subckt sky130_fd_sc_hd__clkinv_2 A VGND VNB VPB VPWR Y
.ends

* Black-box entry subcircuit for sky130_fd_sc_hd__clkbuf_16 abstract view
.subckt sky130_fd_sc_hd__clkbuf_16 A VGND VNB VPB VPWR X
.ends

* Black-box entry subcircuit for sky130_fd_sc_hd__a31o_2 abstract view
.subckt sky130_fd_sc_hd__a31o_2 A1 A2 A3 B1 VGND VNB VPB VPWR X
.ends

* Black-box entry subcircuit for sky130_fd_sc_hd__a22o_1 abstract view
.subckt sky130_fd_sc_hd__a22o_1 A1 A2 B1 B2 VGND VNB VPB VPWR X
.ends

* Black-box entry subcircuit for sky130_fd_sc_hd__a2bb2o_1 abstract view
.subckt sky130_fd_sc_hd__a2bb2o_1 A1_N A2_N B1 B2 VGND VNB VPB VPWR X
.ends

* Black-box entry subcircuit for sky130_fd_sc_hd__or2_1 abstract view
.subckt sky130_fd_sc_hd__or2_1 A B VGND VNB VPB VPWR X
.ends

* Black-box entry subcircuit for sky130_fd_sc_hd__a211oi_1 abstract view
.subckt sky130_fd_sc_hd__a211oi_1 A1 A2 B1 C1 VGND VNB VPB VPWR Y
.ends

* Black-box entry subcircuit for sky130_fd_sc_hd__and3b_1 abstract view
.subckt sky130_fd_sc_hd__and3b_1 A_N B C VGND VNB VPB VPWR X
.ends

* Black-box entry subcircuit for sky130_fd_sc_hd__o31a_2 abstract view
.subckt sky130_fd_sc_hd__o31a_2 A1 A2 A3 B1 VGND VNB VPB VPWR X
.ends

* Black-box entry subcircuit for sky130_fd_sc_hd__clkbuf_2 abstract view
.subckt sky130_fd_sc_hd__clkbuf_2 A VGND VNB VPB VPWR X
.ends

* Black-box entry subcircuit for sky130_fd_sc_hd__o31a_1 abstract view
.subckt sky130_fd_sc_hd__o31a_1 A1 A2 A3 B1 VGND VNB VPB VPWR X
.ends

* Black-box entry subcircuit for sky130_fd_sc_hd__clkbuf_1 abstract view
.subckt sky130_fd_sc_hd__clkbuf_1 A VGND VNB VPB VPWR X
.ends

* Black-box entry subcircuit for sky130_fd_sc_hd__o21ai_2 abstract view
.subckt sky130_fd_sc_hd__o21ai_2 A1 A2 B1 VGND VNB VPB VPWR Y
.ends

* Black-box entry subcircuit for sky130_fd_sc_hd__o21ba_1 abstract view
.subckt sky130_fd_sc_hd__o21ba_1 A1 A2 B1_N VGND VNB VPB VPWR X
.ends

* Black-box entry subcircuit for sky130_fd_sc_hd__nor2_2 abstract view
.subckt sky130_fd_sc_hd__nor2_2 A B VGND VNB VPB VPWR Y
.ends

* Black-box entry subcircuit for sky130_fd_sc_hd__a31o_1 abstract view
.subckt sky130_fd_sc_hd__a31o_1 A1 A2 A3 B1 VGND VNB VPB VPWR X
.ends

* Black-box entry subcircuit for sky130_fd_sc_hd__a32o_1 abstract view
.subckt sky130_fd_sc_hd__a32o_1 A1 A2 A3 B1 B2 VGND VNB VPB VPWR X
.ends

* Black-box entry subcircuit for sky130_fd_sc_hd__o2111a_1 abstract view
.subckt sky130_fd_sc_hd__o2111a_1 A1 A2 B1 C1 D1 VGND VNB VPB VPWR X
.ends

* Black-box entry subcircuit for sky130_fd_sc_hd__and4_1 abstract view
.subckt sky130_fd_sc_hd__and4_1 A B C D VGND VNB VPB VPWR X
.ends

* Black-box entry subcircuit for sky130_fd_sc_hd__o21ai_1 abstract view
.subckt sky130_fd_sc_hd__o21ai_1 A1 A2 B1 VGND VNB VPB VPWR Y
.ends

* Black-box entry subcircuit for sky130_fd_sc_hd__or2_2 abstract view
.subckt sky130_fd_sc_hd__or2_2 A B VGND VNB VPB VPWR X
.ends

* Black-box entry subcircuit for sky130_fd_sc_hd__o21a_1 abstract view
.subckt sky130_fd_sc_hd__o21a_1 A1 A2 B1 VGND VNB VPB VPWR X
.ends

* Black-box entry subcircuit for sky130_fd_sc_hd__mux2_1 abstract view
.subckt sky130_fd_sc_hd__mux2_1 A0 A1 S VGND VNB VPB VPWR X
.ends

* Black-box entry subcircuit for sky130_fd_sc_hd__a221o_2 abstract view
.subckt sky130_fd_sc_hd__a221o_2 A1 A2 B1 B2 C1 VGND VNB VPB VPWR X
.ends

* Black-box entry subcircuit for sky130_fd_sc_hd__a21boi_1 abstract view
.subckt sky130_fd_sc_hd__a21boi_1 A1 A2 B1_N VGND VNB VPB VPWR Y
.ends

* Black-box entry subcircuit for sky130_fd_sc_hd__or3_2 abstract view
.subckt sky130_fd_sc_hd__or3_2 A B C VGND VNB VPB VPWR X
.ends

* Black-box entry subcircuit for sky130_fd_sc_hd__o21a_2 abstract view
.subckt sky130_fd_sc_hd__o21a_2 A1 A2 B1 VGND VNB VPB VPWR X
.ends

* Black-box entry subcircuit for sky130_fd_sc_hd__or4_2 abstract view
.subckt sky130_fd_sc_hd__or4_2 A B C D VGND VNB VPB VPWR X
.ends

* Black-box entry subcircuit for sky130_fd_sc_hd__a41o_1 abstract view
.subckt sky130_fd_sc_hd__a41o_1 A1 A2 A3 A4 B1 VGND VNB VPB VPWR X
.ends

.subckt instrumented_adder a_input[0] a_input[1] a_input[2] a_input[3] a_input[4]
+ a_input[5] a_input[6] a_input[7] b[0] b[1] b[2] b[3] b[4] b[5] b[6] b[7] bypass
+ chain clk counter_end[0] counter_end[1] counter_end[2] counter_end[3] counter_end[4]
+ counter_end[5] counter_end[6] counter_end[7] counter_out[0] counter_out[1] counter_out[2]
+ counter_out[3] counter_out[4] counter_out[5] counter_out[6] counter_out[7] extra_inverter
+ reset ring_osc_counter_out[0] ring_osc_counter_out[1] ring_osc_counter_out[2] ring_osc_counter_out[3]
+ ring_osc_counter_out[4] ring_osc_counter_out[5] ring_osc_counter_out[6] ring_osc_counter_out[7]
+ run sum_out[0] sum_out[1] sum_out[2] sum_out[3] sum_out[4] sum_out[5] sum_out[6]
+ sum_out[7] time_count_overflow vccd1 vssd1
XFILLER_7_7 vssd1 vssd1 vccd1 vccd1 sky130_fd_sc_hd__decap_4
XFILLER_13_111 vssd1 vssd1 vccd1 vccd1 sky130_fd_sc_hd__fill_1
X_294_ _296_/A _296_/B vssd1 vssd1 vccd1 vccd1 _294_/Y sky130_fd_sc_hd__nand2_1
XFILLER_9_148 vssd1 vssd1 vccd1 vccd1 sky130_fd_sc_hd__decap_4
Xbuffers\[6\]._0_ buffers\[6\]._0_/A vssd1 vssd1 vccd1 vccd1 buffers\[7\]._0_/A sky130_fd_sc_hd__inv_2
XFILLER_12_76 vssd1 vssd1 vccd1 vccd1 sky130_fd_sc_hd__decap_8
X_277_ _279_/B _277_/B vssd1 vssd1 vccd1 vccd1 _311_/D sky130_fd_sc_hd__nor2_1
X_200_ counter_out[4] _202_/A vssd1 vssd1 vccd1 vccd1 _321_/D sky130_fd_sc_hd__xnor2_1
XFILLER_0_57 vssd1 vssd1 vccd1 vccd1 sky130_fd_sc_hd__decap_12
XFILLER_0_13 vssd1 vssd1 vccd1 vccd1 sky130_fd_sc_hd__decap_4
XFILLER_13_3 vssd1 vssd1 vccd1 vccd1 sky130_fd_sc_hd__decap_12
XFILLER_6_23 vssd1 vssd1 vccd1 vccd1 sky130_fd_sc_hd__decap_4
XFILLER_6_34 vssd1 vssd1 vccd1 vccd1 sky130_fd_sc_hd__decap_4
XFILLER_17_109 vssd1 vssd1 vccd1 vccd1 sky130_fd_sc_hd__decap_3
XTAP_112 vssd1 vccd1 sky130_fd_sc_hd__tapvpwrvgnd_1
XFILLER_22_101 vssd1 vssd1 vccd1 vccd1 sky130_fd_sc_hd__decap_4
XTAP_101 vssd1 vccd1 sky130_fd_sc_hd__tapvpwrvgnd_1
X_293_ _296_/A _296_/B vssd1 vssd1 vccd1 vccd1 _293_/Y sky130_fd_sc_hd__nand2_1
XFILLER_10_126 vssd1 vssd1 vccd1 vccd1 sky130_fd_sc_hd__decap_4
XFILLER_12_66 vssd1 vssd1 vccd1 vccd1 sky130_fd_sc_hd__decap_6
XFILLER_12_88 vssd1 vssd1 vccd1 vccd1 sky130_fd_sc_hd__decap_12
X_276_ ring_osc_counter_out[0] ring_osc_counter_out[1] ring_osc_counter_out[2] vssd1
+ vssd1 vccd1 vccd1 _277_/B sky130_fd_sc_hd__a21oi_1
X_259_ _258_/B _228_/C _228_/B vssd1 vssd1 vccd1 vccd1 _260_/B sky130_fd_sc_hd__a21oi_1
XFILLER_0_69 vssd1 vssd1 vccd1 vccd1 sky130_fd_sc_hd__decap_12
Xbuffers\[5\]._0_ buffers\[5\]._0_/A vssd1 vssd1 vccd1 vccd1 buffers\[6\]._0_/A sky130_fd_sc_hd__inv_2
XFILLER_18_21 vssd1 vssd1 vccd1 vccd1 sky130_fd_sc_hd__decap_6
XFILLER_20_55 vssd1 vssd1 vccd1 vccd1 sky130_fd_sc_hd__decap_12
XFILLER_20_11 vssd1 vssd1 vccd1 vccd1 sky130_fd_sc_hd__decap_3
XTAP_113 vssd1 vccd1 sky130_fd_sc_hd__tapvpwrvgnd_1
XTAP_102 vssd1 vccd1 sky130_fd_sc_hd__tapvpwrvgnd_1
XFILLER_13_113 vssd1 vssd1 vccd1 vccd1 sky130_fd_sc_hd__decap_4
X_292_ _296_/A _296_/B vssd1 vssd1 vccd1 vccd1 _292_/Y sky130_fd_sc_hd__nand2_1
XFILLER_3_25 vssd1 vssd1 vccd1 vccd1 sky130_fd_sc_hd__decap_4
XFILLER_6_109 vssd1 vssd1 vccd1 vccd1 sky130_fd_sc_hd__fill_2
XFILLER_10_149 vssd1 vssd1 vccd1 vccd1 sky130_fd_sc_hd__decap_3
XFILLER_12_23 vssd1 vssd1 vccd1 vccd1 sky130_fd_sc_hd__decap_4
XFILLER_12_45 vssd1 vssd1 vccd1 vccd1 sky130_fd_sc_hd__fill_1
X_275_ ring_osc_counter_out[0] ring_osc_counter_out[1] ring_osc_counter_out[2] vssd1
+ vssd1 vccd1 vccd1 _279_/B sky130_fd_sc_hd__and3_1
XFILLER_0_37 vssd1 vssd1 vccd1 vccd1 sky130_fd_sc_hd__decap_4
XFILLER_3_3 vssd1 vssd1 vccd1 vccd1 sky130_fd_sc_hd__fill_2
X_189_ _164_/X _182_/X _188_/Y vssd1 vssd1 vccd1 vccd1 _204_/C sky130_fd_sc_hd__a21oi_1
X_258_ _258_/A _258_/B _258_/C vssd1 vssd1 vccd1 vccd1 _263_/A sky130_fd_sc_hd__and3_2
XFILLER_9_46 vssd1 vssd1 vccd1 vccd1 sky130_fd_sc_hd__decap_8
XFILLER_9_57 vssd1 vssd1 vccd1 vccd1 sky130_fd_sc_hd__decap_12
XFILLER_18_11 vssd1 vssd1 vccd1 vccd1 sky130_fd_sc_hd__decap_3
XFILLER_22_9 vssd1 vssd1 vccd1 vccd1 sky130_fd_sc_hd__decap_4
XFILLER_20_67 vssd1 vssd1 vccd1 vccd1 sky130_fd_sc_hd__decap_6
XFILLER_20_45 vssd1 vssd1 vccd1 vccd1 sky130_fd_sc_hd__decap_4
Xbuffers\[4\]._0_ buffers\[4\]._0_/A vssd1 vssd1 vccd1 vccd1 buffers\[5\]._0_/A sky130_fd_sc_hd__inv_2
XFILLER_19_141 vssd1 vssd1 vccd1 vccd1 sky130_fd_sc_hd__decap_8
XFILLER_25_122 vssd1 vssd1 vccd1 vccd1 sky130_fd_sc_hd__decap_4
XFILLER_16_122 vssd1 vssd1 vccd1 vccd1 sky130_fd_sc_hd__decap_4
XTAP_114 vssd1 vccd1 sky130_fd_sc_hd__tapvpwrvgnd_1
XFILLER_22_147 vssd1 vssd1 vccd1 vccd1 sky130_fd_sc_hd__decap_4
XFILLER_22_136 vssd1 vssd1 vccd1 vccd1 sky130_fd_sc_hd__decap_4
XTAP_103 vssd1 vccd1 sky130_fd_sc_hd__tapvpwrvgnd_1
XFILLER_13_136 vssd1 vssd1 vccd1 vccd1 sky130_fd_sc_hd__decap_12
X_291_ _299_/B vssd1 vssd1 vccd1 vccd1 _296_/B sky130_fd_sc_hd__dlymetal6s2s_1
XFILLER_3_15 vssd1 vssd1 vccd1 vccd1 sky130_fd_sc_hd__decap_6
XFILLER_10_139 vssd1 vssd1 vccd1 vccd1 sky130_fd_sc_hd__fill_1
XFILLER_12_13 vssd1 vssd1 vccd1 vccd1 sky130_fd_sc_hd__decap_6
X_274_ ring_osc_counter_out[0] ring_osc_counter_out[1] vssd1 vssd1 vccd1 vccd1 _310_/D
+ sky130_fd_sc_hd__xor2_1
XFILLER_4_80 vssd1 vssd1 vccd1 vccd1 sky130_fd_sc_hd__decap_4
XFILLER_23_23 vssd1 vssd1 vccd1 vccd1 sky130_fd_sc_hd__fill_2
X_188_ _188_/A _188_/B _188_/C _188_/D vssd1 vssd1 vccd1 vccd1 _188_/Y sky130_fd_sc_hd__nor4_1
X_257_ _257_/A _257_/B vssd1 vssd1 vccd1 vccd1 sum_out[2] sky130_fd_sc_hd__nand2_4
XFILLER_9_69 vssd1 vssd1 vccd1 vccd1 sky130_fd_sc_hd__decap_4
X_309_ _292_/Y _309_/D _218_/Y vssd1 vssd1 vccd1 vccd1 ring_osc_counter_out[0] sky130_fd_sc_hd__dfrtp_4
XFILLER_20_24 vssd1 vssd1 vccd1 vccd1 sky130_fd_sc_hd__decap_4
XFILLER_1_81 vssd1 vssd1 vccd1 vccd1 sky130_fd_sc_hd__decap_4
XFILLER_6_48 vssd1 vssd1 vccd1 vccd1 sky130_fd_sc_hd__decap_12
XFILLER_10_90 vssd1 vssd1 vccd1 vccd1 sky130_fd_sc_hd__decap_4
XFILLER_15_46 vssd1 vssd1 vccd1 vccd1 sky130_fd_sc_hd__fill_1
XTAP_115 vssd1 vccd1 sky130_fd_sc_hd__tapvpwrvgnd_1
XTAP_104 vssd1 vccd1 sky130_fd_sc_hd__tapvpwrvgnd_1
XFILLER_11_3 vssd1 vssd1 vccd1 vccd1 sky130_fd_sc_hd__decap_4
Xbuffers\[3\]._0_ buffers\[3\]._0_/A vssd1 vssd1 vccd1 vccd1 buffers\[4\]._0_/A sky130_fd_sc_hd__inv_2
XFILLER_13_148 vssd1 vssd1 vccd1 vccd1 sky130_fd_sc_hd__decap_4
X_290_ _299_/A vssd1 vssd1 vccd1 vccd1 _296_/A sky130_fd_sc_hd__dlymetal6s2s_1
XFILLER_9_108 vssd1 vssd1 vccd1 vccd1 sky130_fd_sc_hd__decap_4
X_273_ _273_/A _273_/B vssd1 vssd1 vccd1 vccd1 sum_out[4] sky130_fd_sc_hd__xnor2_4
XFILLER_23_57 vssd1 vssd1 vccd1 vccd1 sky130_fd_sc_hd__decap_4
XFILLER_2_136 vssd1 vssd1 vccd1 vccd1 sky130_fd_sc_hd__decap_4
XFILLER_2_103 vssd1 vssd1 vccd1 vccd1 sky130_fd_sc_hd__fill_2
X_187_ _187_/A _187_/B _187_/C _174_/X vssd1 vssd1 vccd1 vccd1 _188_/D sky130_fd_sc_hd__or4b_1
X_256_ _256_/A _256_/B _260_/A _256_/D vssd1 vssd1 vccd1 vccd1 _257_/B sky130_fd_sc_hd__or4_1
X_325_ _325_/A vssd1 vssd1 vccd1 vccd1 sum_out[0] sky130_fd_sc_hd__buf_2
XFILLER_1_60 vssd1 vssd1 vccd1 vccd1 sky130_fd_sc_hd__decap_8
X_239_ _245_/A _239_/B _239_/C vssd1 vssd1 vccd1 vccd1 _268_/A sky130_fd_sc_hd__and3_1
X_308_ _308_/A vssd1 vssd1 vccd1 vccd1 _308_/Y sky130_fd_sc_hd__inv_2
XFILLER_20_36 vssd1 vssd1 vccd1 vccd1 sky130_fd_sc_hd__decap_4
XFILLER_6_16 vssd1 vssd1 vccd1 vccd1 sky130_fd_sc_hd__decap_4
XFILLER_6_27 vssd1 vssd1 vccd1 vccd1 sky130_fd_sc_hd__fill_1
XFILLER_25_113 vssd1 vssd1 vccd1 vccd1 sky130_fd_sc_hd__decap_6
XTAP_116 vssd1 vccd1 sky130_fd_sc_hd__tapvpwrvgnd_1
XTAP_105 vssd1 vccd1 sky130_fd_sc_hd__tapvpwrvgnd_1
XFILLER_16_113 vssd1 vssd1 vccd1 vccd1 sky130_fd_sc_hd__decap_4
XFILLER_7_70 vssd1 vssd1 vccd1 vccd1 sky130_fd_sc_hd__decap_12
XFILLER_13_127 vssd1 vssd1 vccd1 vccd1 sky130_fd_sc_hd__decap_4
X_272_ _233_/X _272_/B vssd1 vssd1 vccd1 vccd1 _273_/B sky130_fd_sc_hd__and2b_1
XFILLER_5_134 vssd1 vssd1 vccd1 vccd1 sky130_fd_sc_hd__decap_4
Xbuffers\[2\]._0_ buffers\[2\]._0_/A vssd1 vssd1 vccd1 vccd1 buffers\[3\]._0_/A sky130_fd_sc_hd__inv_2
X_186_ counter_out[3] _170_/Y _179_/X _185_/Y vssd1 vssd1 vccd1 vccd1 _187_/C sky130_fd_sc_hd__a211o_1
X_255_ _256_/A _256_/B _260_/A _256_/D vssd1 vssd1 vccd1 vccd1 _257_/A sky130_fd_sc_hd__o22ai_2
XFILLER_2_148 vssd1 vssd1 vccd1 vccd1 sky130_fd_sc_hd__decap_4
XFILLER_0_29 vssd1 vssd1 vccd1 vccd1 sky130_fd_sc_hd__decap_4
X_324_ _324_/CLK _324_/D _308_/Y vssd1 vssd1 vccd1 vccd1 counter_out[7] sky130_fd_sc_hd__dfrtp_4
XFILLER_9_38 vssd1 vssd1 vccd1 vccd1 sky130_fd_sc_hd__fill_1
XFILLER_1_3 vssd1 vssd1 vccd1 vccd1 sky130_fd_sc_hd__decap_4
X_169_ _171_/A _176_/B _169_/C vssd1 vssd1 vccd1 vccd1 _179_/B sky130_fd_sc_hd__or3_1
XFILLER_24_90 vssd1 vssd1 vccd1 vccd1 sky130_fd_sc_hd__decap_4
X_238_ _242_/S vssd1 vssd1 vccd1 vccd1 _245_/A sky130_fd_sc_hd__dlymetal6s2s_1
X_307_ _307_/A vssd1 vssd1 vccd1 vccd1 _307_/Y sky130_fd_sc_hd__inv_2
XFILLER_19_133 vssd1 vssd1 vccd1 vccd1 sky130_fd_sc_hd__decap_4
XFILLER_25_136 vssd1 vssd1 vccd1 vccd1 sky130_fd_sc_hd__decap_4
XFILLER_16_147 vssd1 vssd1 vccd1 vccd1 sky130_fd_sc_hd__decap_4
XFILLER_16_136 vssd1 vssd1 vccd1 vccd1 sky130_fd_sc_hd__decap_4
XTAP_117 vssd1 vccd1 sky130_fd_sc_hd__tapvpwrvgnd_1
XTAP_106 vssd1 vccd1 sky130_fd_sc_hd__tapvpwrvgnd_1
XPHY_0 vssd1 vssd1 vccd1 vccd1 sky130_fd_sc_hd__decap_3
XFILLER_7_60 vssd1 vssd1 vccd1 vccd1 sky130_fd_sc_hd__decap_6
XFILLER_7_82 vssd1 vssd1 vccd1 vccd1 sky130_fd_sc_hd__decap_12
XFILLER_12_27 vssd1 vssd1 vccd1 vccd1 sky130_fd_sc_hd__fill_1
X_271_ _271_/A _271_/B vssd1 vssd1 vccd1 vccd1 _273_/A sky130_fd_sc_hd__nand2_2
XFILLER_5_102 vssd1 vssd1 vccd1 vccd1 sky130_fd_sc_hd__fill_1
XFILLER_23_15 vssd1 vssd1 vccd1 vccd1 sky130_fd_sc_hd__decap_8
X_185_ counter_out[0] _185_/B vssd1 vssd1 vccd1 vccd1 _185_/Y sky130_fd_sc_hd__nor2_1
X_254_ _245_/A _227_/C _227_/B vssd1 vssd1 vccd1 vccd1 _256_/B sky130_fd_sc_hd__a21oi_1
X_323_ _324_/CLK _323_/D _307_/Y vssd1 vssd1 vccd1 vccd1 counter_out[6] sky130_fd_sc_hd__dfrtp_4
XFILLER_18_59 vssd1 vssd1 vccd1 vccd1 sky130_fd_sc_hd__decap_12
XFILLER_24_80 vssd1 vssd1 vccd1 vccd1 sky130_fd_sc_hd__decap_4
X_168_ _168_/A _168_/B _168_/C _168_/D vssd1 vssd1 vccd1 vccd1 _188_/C sky130_fd_sc_hd__or4_1
X_306_ _307_/A vssd1 vssd1 vccd1 vccd1 _306_/Y sky130_fd_sc_hd__inv_2
Xbuffers\[1\]._0_ buffers\[1\]._0_/A vssd1 vssd1 vccd1 vccd1 buffers\[2\]._0_/A sky130_fd_sc_hd__inv_2
X_237_ _269_/A _237_/B vssd1 vssd1 vccd1 vccd1 _237_/X sky130_fd_sc_hd__and2_1
XFILLER_1_95 vssd1 vssd1 vccd1 vccd1 sky130_fd_sc_hd__decap_6
XFILLER_6_29 vssd1 vssd1 vccd1 vccd1 sky130_fd_sc_hd__fill_2
XFILLER_25_148 vssd1 vssd1 vccd1 vccd1 sky130_fd_sc_hd__decap_4
XFILLER_15_38 vssd1 vssd1 vccd1 vccd1 sky130_fd_sc_hd__decap_8
XTAP_118 vssd1 vccd1 sky130_fd_sc_hd__tapvpwrvgnd_1
XTAP_107 vssd1 vccd1 sky130_fd_sc_hd__tapvpwrvgnd_1
XPHY_1 vssd1 vssd1 vccd1 vccd1 sky130_fd_sc_hd__decap_3
XFILLER_13_107 vssd1 vssd1 vccd1 vccd1 sky130_fd_sc_hd__decap_4
XFILLER_7_94 vssd1 vssd1 vccd1 vccd1 sky130_fd_sc_hd__decap_6
X_270_ _270_/A _270_/B vssd1 vssd1 vccd1 vccd1 sum_out[5] sky130_fd_sc_hd__xnor2_4
X_322_ _324_/CLK _322_/D _306_/Y vssd1 vssd1 vccd1 vccd1 counter_out[5] sky130_fd_sc_hd__dfrtp_4
XFILLER_2_128 vssd1 vssd1 vccd1 vccd1 sky130_fd_sc_hd__decap_4
XFILLER_3_8 vssd1 vssd1 vccd1 vccd1 sky130_fd_sc_hd__decap_4
X_253_ _253_/A _253_/B vssd1 vssd1 vccd1 vccd1 sum_out[3] sky130_fd_sc_hd__xnor2_4
X_184_ _175_/X _176_/Y _204_/A vssd1 vssd1 vccd1 vccd1 _187_/A sky130_fd_sc_hd__a21oi_1
XFILLER_13_93 vssd1 vssd1 vccd1 vccd1 sky130_fd_sc_hd__decap_3
XFILLER_18_49 vssd1 vssd1 vccd1 vccd1 sky130_fd_sc_hd__decap_3
XFILLER_18_27 vssd1 vssd1 vccd1 vccd1 sky130_fd_sc_hd__fill_1
X_167_ _160_/B _160_/C counter_out[5] vssd1 vssd1 vccd1 vccd1 _168_/B sky130_fd_sc_hd__a21oi_1
X_305_ _307_/A vssd1 vssd1 vccd1 vccd1 _305_/Y sky130_fd_sc_hd__inv_2
X_236_ _242_/S _240_/B _240_/C vssd1 vssd1 vccd1 vccd1 _237_/B sky130_fd_sc_hd__a21o_1
XFILLER_1_74 vssd1 vssd1 vccd1 vccd1 sky130_fd_sc_hd__decap_4
XFILLER_19_113 vssd1 vssd1 vccd1 vccd1 sky130_fd_sc_hd__decap_12
XFILLER_10_83 vssd1 vssd1 vccd1 vccd1 sky130_fd_sc_hd__fill_1
X_219_ ring_osc_counter_out[0] vssd1 vssd1 vccd1 vccd1 _309_/D sky130_fd_sc_hd__clkinv_2
Xbuffers\[0\]._0_ _250_/X vssd1 vssd1 vccd1 vccd1 buffers\[1\]._0_/A sky130_fd_sc_hd__inv_2
XTAP_119 vssd1 vccd1 sky130_fd_sc_hd__tapvpwrvgnd_1
XTAP_108 vssd1 vccd1 sky130_fd_sc_hd__tapvpwrvgnd_1
XPHY_2 vssd1 vssd1 vccd1 vccd1 sky130_fd_sc_hd__decap_3
Xclkbuf_0_clk clk vssd1 vssd1 vccd1 vccd1 clkbuf_0_clk/X sky130_fd_sc_hd__clkbuf_16
XFILLER_8_101 vssd1 vssd1 vccd1 vccd1 sky130_fd_sc_hd__fill_2
XFILLER_8_134 vssd1 vssd1 vccd1 vccd1 sky130_fd_sc_hd__decap_6
XFILLER_12_141 vssd1 vssd1 vccd1 vccd1 sky130_fd_sc_hd__decap_8
XFILLER_12_29 vssd1 vssd1 vccd1 vccd1 sky130_fd_sc_hd__decap_12
XFILLER_5_148 vssd1 vssd1 vccd1 vccd1 sky130_fd_sc_hd__decap_4
XFILLER_4_74 vssd1 vssd1 vccd1 vccd1 sky130_fd_sc_hd__fill_1
XFILLER_23_39 vssd1 vssd1 vccd1 vccd1 sky130_fd_sc_hd__decap_6
X_252_ _271_/A _252_/B vssd1 vssd1 vccd1 vccd1 _253_/B sky130_fd_sc_hd__nand2_1
X_183_ counter_out[1] vssd1 vssd1 vccd1 vccd1 _204_/A sky130_fd_sc_hd__dlymetal6s2s_1
X_321_ _324_/CLK _321_/D _305_/Y vssd1 vssd1 vccd1 vccd1 counter_out[4] sky130_fd_sc_hd__dfrtp_4
XFILLER_13_61 vssd1 vssd1 vccd1 vccd1 sky130_fd_sc_hd__fill_1
X_304_ _307_/A vssd1 vssd1 vccd1 vccd1 _304_/Y sky130_fd_sc_hd__inv_2
X_235_ _242_/S _239_/C _239_/B vssd1 vssd1 vccd1 vccd1 _269_/A sky130_fd_sc_hd__a21o_1
X_166_ counter_out[4] _166_/B vssd1 vssd1 vccd1 vccd1 _168_/A sky130_fd_sc_hd__nor2_1
X_149_ _171_/A _176_/B _169_/C _149_/D vssd1 vssd1 vccd1 vccd1 _152_/A sky130_fd_sc_hd__or4_1
XFILLER_19_125 vssd1 vssd1 vccd1 vccd1 sky130_fd_sc_hd__fill_2
X_218_ _301_/A vssd1 vssd1 vccd1 vccd1 _218_/Y sky130_fd_sc_hd__inv_2
XFILLER_15_29 vssd1 vssd1 vccd1 vccd1 sky130_fd_sc_hd__decap_4
XTAP_109 vssd1 vccd1 sky130_fd_sc_hd__tapvpwrvgnd_1
XPHY_3 vssd1 vssd1 vccd1 vccd1 sky130_fd_sc_hd__decap_3
XFILLER_7_41 vssd1 vssd1 vccd1 vccd1 sky130_fd_sc_hd__decap_12
XFILLER_16_72 vssd1 vssd1 vccd1 vccd1 sky130_fd_sc_hd__decap_12
XFILLER_5_116 vssd1 vssd1 vccd1 vccd1 sky130_fd_sc_hd__decap_8
XFILLER_5_127 vssd1 vssd1 vccd1 vccd1 sky130_fd_sc_hd__decap_4
XFILLER_23_29 vssd1 vssd1 vccd1 vccd1 sky130_fd_sc_hd__decap_4
X_251_ _251_/A vssd1 vssd1 vccd1 vccd1 _252_/B sky130_fd_sc_hd__inv_2
X_182_ _188_/A _188_/B _188_/C _182_/D vssd1 vssd1 vccd1 vccd1 _182_/X sky130_fd_sc_hd__or4_1
X_320_ _320_/CLK _320_/D _304_/Y vssd1 vssd1 vccd1 vccd1 counter_out[3] sky130_fd_sc_hd__dfrtp_4
XFILLER_18_29 vssd1 vssd1 vccd1 vccd1 sky130_fd_sc_hd__decap_12
X_234_ _272_/B _271_/A _271_/B _233_/X vssd1 vssd1 vccd1 vccd1 _270_/A sky130_fd_sc_hd__a31o_2
X_165_ counter_out[7] _151_/X _166_/B counter_out[4] vssd1 vssd1 vccd1 vccd1 _188_/B
+ sky130_fd_sc_hd__a22o_1
XFILLER_1_43 vssd1 vssd1 vccd1 vccd1 sky130_fd_sc_hd__fill_1
XFILLER_1_32 vssd1 vssd1 vccd1 vccd1 sky130_fd_sc_hd__decap_4
X_303_ _307_/A vssd1 vssd1 vccd1 vccd1 _303_/Y sky130_fd_sc_hd__inv_2
XFILLER_19_104 vssd1 vssd1 vccd1 vccd1 sky130_fd_sc_hd__decap_8
XFILLER_19_83 vssd1 vssd1 vccd1 vccd1 sky130_fd_sc_hd__decap_4
XFILLER_19_61 vssd1 vssd1 vccd1 vccd1 sky130_fd_sc_hd__decap_12
X_217_ _301_/A vssd1 vssd1 vccd1 vccd1 _217_/Y sky130_fd_sc_hd__inv_2
XFILLER_10_85 vssd1 vssd1 vccd1 vccd1 sky130_fd_sc_hd__fill_2
XFILLER_25_129 vssd1 vssd1 vccd1 vccd1 sky130_fd_sc_hd__decap_4
XFILLER_21_95 vssd1 vssd1 vccd1 vccd1 sky130_fd_sc_hd__decap_4
XFILLER_21_84 vssd1 vssd1 vccd1 vccd1 sky130_fd_sc_hd__decap_4
XFILLER_16_107 vssd1 vssd1 vccd1 vccd1 sky130_fd_sc_hd__fill_2
XPHY_4 vssd1 vssd1 vccd1 vccd1 sky130_fd_sc_hd__decap_3
XFILLER_7_53 vssd1 vssd1 vccd1 vccd1 sky130_fd_sc_hd__decap_3
XFILLER_16_95 vssd1 vssd1 vccd1 vccd1 sky130_fd_sc_hd__decap_12
XFILLER_8_125 vssd1 vssd1 vccd1 vccd1 sky130_fd_sc_hd__decap_4
XFILLER_12_110 vssd1 vssd1 vccd1 vccd1 sky130_fd_sc_hd__decap_12
XFILLER_5_106 vssd1 vssd1 vccd1 vccd1 sky130_fd_sc_hd__decap_6
XFILLER_4_43 vssd1 vssd1 vccd1 vccd1 sky130_fd_sc_hd__fill_1
X_181_ counter_out[3] _170_/Y _174_/X _180_/X vssd1 vssd1 vccd1 vccd1 _182_/D sky130_fd_sc_hd__a22o_1
XFILLER_13_85 vssd1 vssd1 vccd1 vccd1 sky130_fd_sc_hd__decap_8
XFILLER_13_41 vssd1 vssd1 vccd1 vccd1 sky130_fd_sc_hd__decap_12
X_250_ _250_/A _250_/B vssd1 vssd1 vccd1 vccd1 _250_/X sky130_fd_sc_hd__xor2_1
Xbuffers\[19\]._0_ buffers\[19\]._0_/A vssd1 vssd1 vccd1 vccd1 buffers\[20\]._0_/A
+ sky130_fd_sc_hd__inv_2
X_233_ _233_/A _233_/B _233_/C vssd1 vssd1 vccd1 vccd1 _233_/X sky130_fd_sc_hd__and3_1
X_164_ _188_/A _163_/Y counter_out[7] _151_/X vssd1 vssd1 vccd1 vccd1 _164_/X sky130_fd_sc_hd__a2bb2o_1
XFILLER_1_88 vssd1 vssd1 vccd1 vccd1 sky130_fd_sc_hd__decap_4
XFILLER_1_55 vssd1 vssd1 vccd1 vccd1 sky130_fd_sc_hd__fill_1
XFILLER_1_11 vssd1 vssd1 vccd1 vccd1 sky130_fd_sc_hd__decap_4
X_302_ _308_/A vssd1 vssd1 vccd1 vccd1 _307_/A sky130_fd_sc_hd__buf_2
XFILLER_19_149 vssd1 vssd1 vccd1 vccd1 sky130_fd_sc_hd__decap_3
XFILLER_19_95 vssd1 vssd1 vccd1 vccd1 sky130_fd_sc_hd__decap_4
XFILLER_19_73 vssd1 vssd1 vccd1 vccd1 sky130_fd_sc_hd__decap_6
XFILLER_10_42 vssd1 vssd1 vccd1 vccd1 sky130_fd_sc_hd__decap_12
XFILLER_18_3 vssd1 vssd1 vccd1 vccd1 sky130_fd_sc_hd__decap_8
X_216_ _301_/A vssd1 vssd1 vccd1 vccd1 _216_/Y sky130_fd_sc_hd__inv_2
XFILLER_24_141 vssd1 vssd1 vccd1 vccd1 sky130_fd_sc_hd__decap_3
XPHY_5 vssd1 vssd1 vccd1 vccd1 sky130_fd_sc_hd__decap_3
XFILLER_21_144 vssd1 vssd1 vccd1 vccd1 sky130_fd_sc_hd__decap_8
XFILLER_16_41 vssd1 vssd1 vccd1 vccd1 sky130_fd_sc_hd__decap_12
XFILLER_8_148 vssd1 vssd1 vccd1 vccd1 sky130_fd_sc_hd__decap_4
XFILLER_12_100 vssd1 vssd1 vccd1 vccd1 sky130_fd_sc_hd__decap_6
XFILLER_12_122 vssd1 vssd1 vccd1 vccd1 sky130_fd_sc_hd__decap_12
XFILLER_4_11 vssd1 vssd1 vccd1 vccd1 sky130_fd_sc_hd__decap_4
XFILLER_4_66 vssd1 vssd1 vccd1 vccd1 sky130_fd_sc_hd__decap_8
X_180_ _177_/X _187_/B _179_/X vssd1 vssd1 vccd1 vccd1 _180_/X sky130_fd_sc_hd__a21o_1
XFILLER_13_53 vssd1 vssd1 vccd1 vccd1 sky130_fd_sc_hd__decap_3
X_232_ _251_/A _253_/A vssd1 vssd1 vccd1 vccd1 _271_/B sky130_fd_sc_hd__or2_1
X_163_ _157_/X _159_/X _168_/C _168_/D vssd1 vssd1 vccd1 vccd1 _163_/Y sky130_fd_sc_hd__a211oi_1
X_301_ _301_/A vssd1 vssd1 vccd1 vccd1 _301_/Y sky130_fd_sc_hd__inv_2
Xbuffers\[18\]._0_ buffers\[18\]._0_/A vssd1 vssd1 vccd1 vccd1 buffers\[19\]._0_/A
+ sky130_fd_sc_hd__inv_2
XFILLER_10_54 vssd1 vssd1 vccd1 vccd1 sky130_fd_sc_hd__decap_6
XFILLER_25_109 vssd1 vssd1 vccd1 vccd1 sky130_fd_sc_hd__decap_3
X_215_ _308_/A vssd1 vssd1 vccd1 vccd1 _301_/A sky130_fd_sc_hd__buf_2
XPHY_6 vssd1 vssd1 vccd1 vccd1 sky130_fd_sc_hd__decap_3
XFILLER_12_134 vssd1 vssd1 vccd1 vccd1 sky130_fd_sc_hd__decap_6
XFILLER_1_144 vssd1 vssd1 vccd1 vccd1 sky130_fd_sc_hd__decap_8
XFILLER_1_111 vssd1 vssd1 vccd1 vccd1 sky130_fd_sc_hd__fill_1
XFILLER_8_3 vssd1 vssd1 vccd1 vccd1 sky130_fd_sc_hd__decap_4
XFILLER_24_97 vssd1 vssd1 vccd1 vccd1 sky130_fd_sc_hd__decap_12
X_162_ _161_/X counter_out[6] _162_/C vssd1 vssd1 vccd1 vccd1 _168_/D sky130_fd_sc_hd__and3b_1
X_231_ _256_/A _260_/A _256_/D _230_/X vssd1 vssd1 vccd1 vccd1 _253_/A sky130_fd_sc_hd__o31a_2
X_300_ _301_/A vssd1 vssd1 vccd1 vccd1 _300_/Y sky130_fd_sc_hd__inv_2
XFILLER_1_68 vssd1 vssd1 vccd1 vccd1 sky130_fd_sc_hd__decap_3
Xinput1 a_input[0] vssd1 vssd1 vccd1 vccd1 _258_/A sky130_fd_sc_hd__clkbuf_2
XFILLER_19_53 vssd1 vssd1 vccd1 vccd1 sky130_fd_sc_hd__decap_3
XTAP_90 vssd1 vccd1 sky130_fd_sc_hd__tapvpwrvgnd_1
X_214_ _214_/A vssd1 vssd1 vccd1 vccd1 _214_/Y sky130_fd_sc_hd__inv_2
XFILLER_15_121 vssd1 vssd1 vccd1 vccd1 sky130_fd_sc_hd__decap_4
XPHY_7 vssd1 vssd1 vccd1 vccd1 sky130_fd_sc_hd__decap_3
XFILLER_23_3 vssd1 vssd1 vccd1 vccd1 sky130_fd_sc_hd__decap_12
XFILLER_21_135 vssd1 vssd1 vccd1 vccd1 sky130_fd_sc_hd__decap_4
XFILLER_21_113 vssd1 vssd1 vccd1 vccd1 sky130_fd_sc_hd__decap_4
Xbuffers\[17\]._0_ buffers\[17\]._0_/A vssd1 vssd1 vccd1 vccd1 buffers\[18\]._0_/A
+ sky130_fd_sc_hd__inv_2
XFILLER_4_24 vssd1 vssd1 vccd1 vccd1 sky130_fd_sc_hd__decap_4
XFILLER_13_99 vssd1 vssd1 vccd1 vccd1 sky130_fd_sc_hd__decap_4
XFILLER_13_77 vssd1 vssd1 vccd1 vccd1 sky130_fd_sc_hd__decap_4
XFILLER_13_66 vssd1 vssd1 vccd1 vccd1 sky130_fd_sc_hd__decap_4
X_161_ _156_/A _153_/B _156_/B _154_/A vssd1 vssd1 vccd1 vccd1 _161_/X sky130_fd_sc_hd__o31a_1
X_230_ _233_/A _227_/C _227_/B vssd1 vssd1 vccd1 vccd1 _230_/X sky130_fd_sc_hd__a21o_1
XFILLER_1_47 vssd1 vssd1 vccd1 vccd1 sky130_fd_sc_hd__decap_8
XFILLER_1_25 vssd1 vssd1 vccd1 vccd1 sky130_fd_sc_hd__decap_4
XTAP_91 vssd1 vccd1 sky130_fd_sc_hd__tapvpwrvgnd_1
Xinput2 a_input[1] vssd1 vssd1 vccd1 vccd1 _228_/C sky130_fd_sc_hd__dlymetal6s2s_1
XFILLER_10_67 vssd1 vssd1 vccd1 vccd1 sky130_fd_sc_hd__decap_12
XTAP_80 vssd1 vccd1 sky130_fd_sc_hd__tapvpwrvgnd_1
X_213_ _214_/A vssd1 vssd1 vccd1 vccd1 _213_/Y sky130_fd_sc_hd__inv_2
XFILLER_18_141 vssd1 vssd1 vccd1 vccd1 sky130_fd_sc_hd__decap_4
XFILLER_16_3 vssd1 vssd1 vccd1 vccd1 sky130_fd_sc_hd__decap_4
XPHY_8 vssd1 vssd1 vccd1 vccd1 sky130_fd_sc_hd__decap_3
XFILLER_21_125 vssd1 vssd1 vccd1 vccd1 sky130_fd_sc_hd__decap_4
Xbuffers\[16\]._0_ buffers\[16\]._0_/A vssd1 vssd1 vccd1 vccd1 buffers\[17\]._0_/A
+ sky130_fd_sc_hd__inv_2
XFILLER_13_34 vssd1 vssd1 vccd1 vccd1 sky130_fd_sc_hd__decap_4
XFILLER_5_90 vssd1 vssd1 vccd1 vccd1 sky130_fd_sc_hd__decap_12
X_160_ counter_out[5] _160_/B _160_/C vssd1 vssd1 vccd1 vccd1 _168_/C sky130_fd_sc_hd__and3_1
XTAP_92 vssd1 vccd1 sky130_fd_sc_hd__tapvpwrvgnd_1
Xinput3 a_input[2] vssd1 vssd1 vccd1 vccd1 _227_/C sky130_fd_sc_hd__clkbuf_1
XTAP_70 vssd1 vccd1 sky130_fd_sc_hd__tapvpwrvgnd_1
X_289_ ring_osc_counter_out[7] _289_/B vssd1 vssd1 vccd1 vccd1 _316_/D sky130_fd_sc_hd__xnor2_1
XTAP_81 vssd1 vccd1 sky130_fd_sc_hd__tapvpwrvgnd_1
XFILLER_19_33 vssd1 vssd1 vccd1 vccd1 sky130_fd_sc_hd__decap_12
X_212_ _214_/A vssd1 vssd1 vccd1 vccd1 _212_/Y sky130_fd_sc_hd__inv_2