* NGSPICE file created from instrumented_adder.ext - technology: sky130A

* Black-box entry subcircuit for sky130_fd_sc_hd__decap_4 abstract view
.subckt sky130_fd_sc_hd__decap_4 VGND VNB VPB VPWR
.ends

* Black-box entry subcircuit for sky130_fd_sc_hd__decap_12 abstract view
.subckt sky130_fd_sc_hd__decap_12 VGND VNB VPB VPWR
.ends

* Black-box entry subcircuit for sky130_fd_sc_hd__fill_1 abstract view
.subckt sky130_fd_sc_hd__fill_1 VGND VNB VPB VPWR
.ends

* Black-box entry subcircuit for sky130_fd_sc_hd__decap_6 abstract view
.subckt sky130_fd_sc_hd__decap_6 VGND VNB VPB VPWR
.ends

* Black-box entry subcircuit for sky130_fd_sc_hd__decap_8 abstract view
.subckt sky130_fd_sc_hd__decap_8 VGND VNB VPB VPWR
.ends

* Black-box entry subcircuit for sky130_fd_sc_hd__mux2_1 abstract view
.subckt sky130_fd_sc_hd__mux2_1 A0 A1 S VGND VNB VPB VPWR X
.ends

* Black-box entry subcircuit for sky130_fd_sc_hd__inv_2 abstract view
.subckt sky130_fd_sc_hd__inv_2 A VGND VNB VPB VPWR Y
.ends

* Black-box entry subcircuit for sky130_fd_sc_hd__tapvpwrvgnd_1 abstract view
.subckt sky130_fd_sc_hd__tapvpwrvgnd_1 VGND VPWR
.ends

* Black-box entry subcircuit for sky130_fd_sc_hd__fill_2 abstract view
.subckt sky130_fd_sc_hd__fill_2 VGND VNB VPB VPWR
.ends

* Black-box entry subcircuit for sky130_fd_sc_hd__buf_2 abstract view
.subckt sky130_fd_sc_hd__buf_2 A VGND VNB VPB VPWR X
.ends

* Black-box entry subcircuit for sky130_fd_sc_hd__dfrtp_2 abstract view
.subckt sky130_fd_sc_hd__dfrtp_2 CLK D RESET_B VGND VNB VPB VPWR Q
.ends

* Black-box entry subcircuit for sky130_fd_sc_hd__dfrtp_1 abstract view
.subckt sky130_fd_sc_hd__dfrtp_1 CLK D RESET_B VGND VNB VPB VPWR Q
.ends

* Black-box entry subcircuit for sky130_fd_sc_hd__o31a_1 abstract view
.subckt sky130_fd_sc_hd__o31a_1 A1 A2 A3 B1 VGND VNB VPB VPWR X
.ends

* Black-box entry subcircuit for sky130_fd_sc_hd__xnor2_2 abstract view
.subckt sky130_fd_sc_hd__xnor2_2 A B VGND VNB VPB VPWR Y
.ends

* Black-box entry subcircuit for sky130_fd_sc_hd__nor2_1 abstract view
.subckt sky130_fd_sc_hd__nor2_1 A B VGND VNB VPB VPWR Y
.ends

* Black-box entry subcircuit for sky130_fd_sc_hd__ebufn_4 abstract view
.subckt sky130_fd_sc_hd__ebufn_4 A TE_B VGND VNB VPB VPWR Z
.ends

* Black-box entry subcircuit for sky130_fd_sc_hd__decap_3 abstract view
.subckt sky130_fd_sc_hd__decap_3 VGND VNB VPB VPWR
.ends

* Black-box entry subcircuit for sky130_fd_sc_hd__a211oi_1 abstract view
.subckt sky130_fd_sc_hd__a211oi_1 A1 A2 B1 C1 VGND VNB VPB VPWR Y
.ends

* Black-box entry subcircuit for sky130_fd_sc_hd__nand2_1 abstract view
.subckt sky130_fd_sc_hd__nand2_1 A B VGND VNB VPB VPWR Y
.ends

* Black-box entry subcircuit for sky130_fd_sc_hd__and2_1 abstract view
.subckt sky130_fd_sc_hd__and2_1 A B VGND VNB VPB VPWR X
.ends

* Black-box entry subcircuit for sky130_fd_sc_hd__ebufn_8 abstract view
.subckt sky130_fd_sc_hd__ebufn_8 A TE_B VGND VNB VPB VPWR Z
.ends

* Black-box entry subcircuit for sky130_fd_sc_hd__or2_1 abstract view
.subckt sky130_fd_sc_hd__or2_1 A B VGND VNB VPB VPWR X
.ends

* Black-box entry subcircuit for sky130_fd_sc_hd__clkbuf_16 abstract view
.subckt sky130_fd_sc_hd__clkbuf_16 A VGND VNB VPB VPWR X
.ends

* Black-box entry subcircuit for sky130_fd_sc_hd__xor2_2 abstract view
.subckt sky130_fd_sc_hd__xor2_2 A B VGND VNB VPB VPWR X
.ends

* Black-box entry subcircuit for sky130_fd_sc_hd__ebufn_2 abstract view
.subckt sky130_fd_sc_hd__ebufn_2 A TE_B VGND VNB VPB VPWR Z
.ends

* Black-box entry subcircuit for sky130_fd_sc_hd__and3_1 abstract view
.subckt sky130_fd_sc_hd__and3_1 A B C VGND VNB VPB VPWR X
.ends

* Black-box entry subcircuit for sky130_fd_sc_hd__ebufn_1 abstract view
.subckt sky130_fd_sc_hd__ebufn_1 A TE_B VGND VNB VPB VPWR Z
.ends

* Black-box entry subcircuit for sky130_fd_sc_hd__o311a_1 abstract view
.subckt sky130_fd_sc_hd__o311a_1 A1 A2 A3 B1 C1 VGND VNB VPB VPWR X
.ends

* Black-box entry subcircuit for sky130_fd_sc_hd__xnor2_1 abstract view
.subckt sky130_fd_sc_hd__xnor2_1 A B VGND VNB VPB VPWR Y
.ends

* Black-box entry subcircuit for sky130_fd_sc_hd__o2111a_1 abstract view
.subckt sky130_fd_sc_hd__o2111a_1 A1 A2 B1 C1 D1 VGND VNB VPB VPWR X
.ends

* Black-box entry subcircuit for sky130_fd_sc_hd__xor2_1 abstract view
.subckt sky130_fd_sc_hd__xor2_1 A B VGND VNB VPB VPWR X
.ends

* Black-box entry subcircuit for sky130_fd_sc_hd__o21ai_1 abstract view
.subckt sky130_fd_sc_hd__o21ai_1 A1 A2 B1 VGND VNB VPB VPWR Y
.ends

* Black-box entry subcircuit for sky130_fd_sc_hd__a21oi_1 abstract view
.subckt sky130_fd_sc_hd__a21oi_1 A1 A2 B1 VGND VNB VPB VPWR Y
.ends

* Black-box entry subcircuit for sky130_fd_sc_hd__clkbuf_1 abstract view
.subckt sky130_fd_sc_hd__clkbuf_1 A VGND VNB VPB VPWR X
.ends

* Black-box entry subcircuit for sky130_fd_sc_hd__nor2_4 abstract view
.subckt sky130_fd_sc_hd__nor2_4 A B VGND VNB VPB VPWR Y
.ends

* Black-box entry subcircuit for sky130_fd_sc_hd__o21a_1 abstract view
.subckt sky130_fd_sc_hd__o21a_1 A1 A2 B1 VGND VNB VPB VPWR X
.ends

* Black-box entry subcircuit for sky130_fd_sc_hd__a31o_2 abstract view
.subckt sky130_fd_sc_hd__a31o_2 A1 A2 A3 B1 VGND VNB VPB VPWR X
.ends

* Black-box entry subcircuit for sky130_fd_sc_hd__clkbuf_2 abstract view
.subckt sky130_fd_sc_hd__clkbuf_2 A VGND VNB VPB VPWR X
.ends

* Black-box entry subcircuit for sky130_fd_sc_hd__or4_1 abstract view
.subckt sky130_fd_sc_hd__or4_1 A B C D VGND VNB VPB VPWR X
.ends

* Black-box entry subcircuit for sky130_fd_sc_hd__or4_2 abstract view
.subckt sky130_fd_sc_hd__or4_2 A B C D VGND VNB VPB VPWR X
.ends

* Black-box entry subcircuit for sky130_fd_sc_hd__nor2_2 abstract view
.subckt sky130_fd_sc_hd__nor2_2 A B VGND VNB VPB VPWR Y
.ends

* Black-box entry subcircuit for sky130_fd_sc_hd__dlymetal6s2s_1 abstract view
.subckt sky130_fd_sc_hd__dlymetal6s2s_1 A VGND VNB VPB VPWR X
.ends

* Black-box entry subcircuit for sky130_fd_sc_hd__a21o_1 abstract view
.subckt sky130_fd_sc_hd__a21o_1 A1 A2 B1 VGND VNB VPB VPWR X
.ends

* Black-box entry subcircuit for sky130_fd_sc_hd__dfrtp_4 abstract view
.subckt sky130_fd_sc_hd__dfrtp_4 CLK D RESET_B VGND VNB VPB VPWR Q
.ends

* Black-box entry subcircuit for sky130_fd_sc_hd__o21ba_1 abstract view
.subckt sky130_fd_sc_hd__o21ba_1 A1 A2 B1_N VGND VNB VPB VPWR X
.ends

* Black-box entry subcircuit for sky130_fd_sc_hd__or3_1 abstract view
.subckt sky130_fd_sc_hd__or3_1 A B C VGND VNB VPB VPWR X
.ends

* Black-box entry subcircuit for sky130_fd_sc_hd__o211a_1 abstract view
.subckt sky130_fd_sc_hd__o211a_1 A1 A2 B1 C1 VGND VNB VPB VPWR X
.ends

* Black-box entry subcircuit for sky130_fd_sc_hd__a311o_2 abstract view
.subckt sky130_fd_sc_hd__a311o_2 A1 A2 A3 B1 C1 VGND VNB VPB VPWR X
.ends

* Black-box entry subcircuit for sky130_fd_sc_hd__clkinv_2 abstract view
.subckt sky130_fd_sc_hd__clkinv_2 A VGND VNB VPB VPWR Y
.ends

* Black-box entry subcircuit for sky130_fd_sc_hd__nand2_4 abstract view
.subckt sky130_fd_sc_hd__nand2_4 A B VGND VNB VPB VPWR Y
.ends

.subckt instrumented_adder a_input[0] a_input[1] a_input[2] a_input[3] a_input[4]
+ a_input[5] a_input[6] a_input[7] a_input_ext_bit_b[0] a_input_ext_bit_b[1] a_input_ext_bit_b[2]
+ a_input_ext_bit_b[3] a_input_ext_bit_b[4] a_input_ext_bit_b[5] a_input_ext_bit_b[6]
+ a_input_ext_bit_b[7] a_input_ring_bit_b[0] a_input_ring_bit_b[1] a_input_ring_bit_b[2]
+ a_input_ring_bit_b[3] a_input_ring_bit_b[4] a_input_ring_bit_b[5] a_input_ring_bit_b[6]
+ a_input_ring_bit_b[7] b_input[0] b_input[1] b_input[2] b_input[3] b_input[4] b_input[5]
+ b_input[6] b_input[7] bypass_b clk control_b counter_enable counter_load done extra_inverter
+ integration_time[0] integration_time[1] integration_time[2] integration_time[3]
+ integration_time[4] integration_time[5] integration_time[6] integration_time[7]
+ reset ring_osc_counter_out[0] ring_osc_counter_out[1] ring_osc_counter_out[2] ring_osc_counter_out[3]
+ ring_osc_counter_out[4] ring_osc_counter_out[5] ring_osc_counter_out[6] ring_osc_counter_out[7]
+ ring_osc_out s_output_bit_b[0] s_output_bit_b[1] s_output_bit_b[2] s_output_bit_b[3]
+ s_output_bit_b[4] s_output_bit_b[5] s_output_bit_b[6] s_output_bit_b[7] stop_b sum_out[0]
+ sum_out[1] sum_out[2] sum_out[3] sum_out[4] sum_out[5] sum_out[6] sum_out[7] vccd1
+ vssd1
XFILLER_22_122 vssd1 vssd1 vccd1 vccd1 sky130_fd_sc_hd__decap_4
XFILLER_26_41 vssd1 vssd1 vccd1 vccd1 sky130_fd_sc_hd__decap_12
XFILLER_13_111 vssd1 vssd1 vccd1 vccd1 sky130_fd_sc_hd__fill_1
XFILLER_3_89 vssd1 vssd1 vccd1 vccd1 sky130_fd_sc_hd__fill_1
XFILLER_9_137 vssd1 vssd1 vccd1 vccd1 sky130_fd_sc_hd__decap_6
XFILLER_5_162 vssd1 vssd1 vccd1 vccd1 sky130_fd_sc_hd__fill_1
XFILLER_23_86 vssd1 vssd1 vccd1 vccd1 sky130_fd_sc_hd__decap_8
X_131_ _130_/X _256_/Q _146_/S vssd1 vssd1 vccd1 vccd1 _132_/A sky130_fd_sc_hd__mux2_1
X_200_ _235_/A vssd1 vssd1 vccd1 vccd1 _200_/Y sky130_fd_sc_hd__inv_2
XFILLER_0_13 vssd1 vssd1 vccd1 vccd1 sky130_fd_sc_hd__decap_4
XFILLER_22_7 vssd1 vssd1 vccd1 vccd1 sky130_fd_sc_hd__fill_1
XFILLER_20_32 vssd1 vssd1 vccd1 vccd1 sky130_fd_sc_hd__decap_4
XFILLER_13_3 vssd1 vssd1 vccd1 vccd1 sky130_fd_sc_hd__decap_4
XFILLER_6_34 vssd1 vssd1 vccd1 vccd1 sky130_fd_sc_hd__decap_8
Xinverters\[4\]._0_ inverters\[4\]._0_/A vssd1 vssd1 vccd1 vccd1 inverters\[5\]._0_/A
+ sky130_fd_sc_hd__inv_2
XTAP_123 vssd1 vccd1 sky130_fd_sc_hd__tapvpwrvgnd_1
XFILLER_22_101 vssd1 vssd1 vccd1 vccd1 sky130_fd_sc_hd__fill_1
XTAP_112 vssd1 vccd1 sky130_fd_sc_hd__tapvpwrvgnd_1
XTAP_101 vssd1 vccd1 sky130_fd_sc_hd__tapvpwrvgnd_1
XFILLER_26_53 vssd1 vssd1 vccd1 vccd1 sky130_fd_sc_hd__fill_2
XFILLER_13_134 vssd1 vssd1 vccd1 vccd1 sky130_fd_sc_hd__decap_4
XFILLER_13_123 vssd1 vssd1 vccd1 vccd1 sky130_fd_sc_hd__decap_4
XFILLER_3_13 vssd1 vssd1 vccd1 vccd1 sky130_fd_sc_hd__decap_4
XFILLER_9_105 vssd1 vssd1 vccd1 vccd1 sky130_fd_sc_hd__decap_6
XFILLER_9_116 vssd1 vssd1 vccd1 vccd1 sky130_fd_sc_hd__decap_12
XFILLER_10_115 vssd1 vssd1 vccd1 vccd1 sky130_fd_sc_hd__decap_6
XFILLER_10_159 vssd1 vssd1 vccd1 vccd1 sky130_fd_sc_hd__decap_4
XFILLER_12_11 vssd1 vssd1 vccd1 vccd1 sky130_fd_sc_hd__decap_4
XFILLER_12_33 vssd1 vssd1 vccd1 vccd1 sky130_fd_sc_hd__decap_4
XFILLER_5_141 vssd1 vssd1 vccd1 vccd1 sky130_fd_sc_hd__decap_4
X_276_ _276_/A vssd1 vssd1 vccd1 vccd1 sum_out[7] sky130_fd_sc_hd__buf_2
X_130_ _129_/Y _130_/A1 _141_/S vssd1 vssd1 vccd1 vccd1 _130_/X sky130_fd_sc_hd__mux2_1
XFILLER_23_76 vssd1 vssd1 vccd1 vccd1 sky130_fd_sc_hd__decap_4
X_259_ _259_/CLK _259_/D _200_/Y vssd1 vssd1 vccd1 vccd1 _259_/Q sky130_fd_sc_hd__dfrtp_2
XFILLER_2_133 vssd1 vssd1 vccd1 vccd1 sky130_fd_sc_hd__decap_6
XFILLER_2_111 vssd1 vssd1 vccd1 vccd1 sky130_fd_sc_hd__fill_1
XFILLER_9_23 vssd1 vssd1 vccd1 vccd1 sky130_fd_sc_hd__decap_4
XFILLER_18_76 vssd1 vssd1 vccd1 vccd1 sky130_fd_sc_hd__decap_8
XFILLER_19_162 vssd1 vssd1 vccd1 vccd1 sky130_fd_sc_hd__fill_1
XFILLER_6_24 vssd1 vssd1 vccd1 vccd1 sky130_fd_sc_hd__decap_4
XFILLER_16_132 vssd1 vssd1 vccd1 vccd1 sky130_fd_sc_hd__decap_8
XFILLER_15_88 vssd1 vssd1 vccd1 vccd1 sky130_fd_sc_hd__decap_4
XTAP_124 vssd1 vccd1 sky130_fd_sc_hd__tapvpwrvgnd_1
XTAP_113 vssd1 vccd1 sky130_fd_sc_hd__tapvpwrvgnd_1
XTAP_102 vssd1 vccd1 sky130_fd_sc_hd__tapvpwrvgnd_1
XFILLER_13_113 vssd1 vssd1 vccd1 vccd1 sky130_fd_sc_hd__decap_6
XFILLER_9_128 vssd1 vssd1 vccd1 vccd1 sky130_fd_sc_hd__fill_2
Xinverters\[3\]._0_ inverters\[3\]._0_/A vssd1 vssd1 vccd1 vccd1 inverters\[4\]._0_/A
+ sky130_fd_sc_hd__inv_2
XFILLER_6_109 vssd1 vssd1 vccd1 vccd1 sky130_fd_sc_hd__decap_4
XFILLER_10_138 vssd1 vssd1 vccd1 vccd1 sky130_fd_sc_hd__fill_2
X_275_ _275_/A vssd1 vssd1 vccd1 vccd1 sum_out[6] sky130_fd_sc_hd__buf_2
XFILLER_23_66 vssd1 vssd1 vccd1 vccd1 sky130_fd_sc_hd__decap_4
XFILLER_23_11 vssd1 vssd1 vccd1 vccd1 sky130_fd_sc_hd__fill_2
XFILLER_0_48 vssd1 vssd1 vccd1 vccd1 sky130_fd_sc_hd__decap_8
X_258_ _259_/CLK _258_/D _199_/Y vssd1 vssd1 vccd1 vccd1 _258_/Q sky130_fd_sc_hd__dfrtp_1
XFILLER_9_57 vssd1 vssd1 vccd1 vccd1 sky130_fd_sc_hd__decap_6
X_189_ _187_/A _188_/A _187_/B _185_/A vssd1 vssd1 vccd1 vccd1 _191_/A sky130_fd_sc_hd__o31a_1
XFILLER_9_79 vssd1 vssd1 vccd1 vccd1 sky130_fd_sc_hd__decap_4
XFILLER_18_33 vssd1 vssd1 vccd1 vccd1 sky130_fd_sc_hd__decap_4
XFILLER_18_11 vssd1 vssd1 vccd1 vccd1 sky130_fd_sc_hd__decap_4
XFILLER_20_6 vssd1 vssd1 vccd1 vccd1 sky130_fd_sc_hd__decap_12
XFILLER_6_47 vssd1 vssd1 vccd1 vccd1 sky130_fd_sc_hd__decap_12
XTAP_125 vssd1 vccd1 sky130_fd_sc_hd__tapvpwrvgnd_1
XFILLER_22_158 vssd1 vssd1 vccd1 vccd1 sky130_fd_sc_hd__decap_4
XFILLER_22_136 vssd1 vssd1 vccd1 vccd1 sky130_fd_sc_hd__decap_4
XTAP_114 vssd1 vccd1 sky130_fd_sc_hd__tapvpwrvgnd_1
XTAP_103 vssd1 vccd1 sky130_fd_sc_hd__tapvpwrvgnd_1
XFILLER_26_88 vssd1 vssd1 vccd1 vccd1 sky130_fd_sc_hd__decap_4
XFILLER_13_103 vssd1 vssd1 vccd1 vccd1 sky130_fd_sc_hd__decap_8
XFILLER_3_26 vssd1 vssd1 vccd1 vccd1 sky130_fd_sc_hd__decap_12
XFILLER_5_7 vssd1 vssd1 vccd1 vccd1 sky130_fd_sc_hd__fill_1
X_274_ _274_/A vssd1 vssd1 vccd1 vccd1 sum_out[5] sky130_fd_sc_hd__buf_2
X_257_ _259_/CLK _257_/D _198_/Y vssd1 vssd1 vccd1 vccd1 _257_/Q sky130_fd_sc_hd__dfrtp_1
Xinverters\[2\]._0_ inverters\[2\]._0_/A vssd1 vssd1 vccd1 vccd1 inverters\[3\]._0_/A
+ sky130_fd_sc_hd__inv_2
X_188_ _188_/A _188_/B vssd1 vssd1 vccd1 vccd1 _275_/A sky130_fd_sc_hd__xnor2_2
XFILLER_18_56 vssd1 vssd1 vccd1 vccd1 sky130_fd_sc_hd__fill_1
XFILLER_1_92 vssd1 vssd1 vccd1 vccd1 sky130_fd_sc_hd__decap_6
XFILLER_19_131 vssd1 vssd1 vccd1 vccd1 sky130_fd_sc_hd__decap_12
XFILLER_25_101 vssd1 vssd1 vccd1 vccd1 sky130_fd_sc_hd__decap_8
XFILLER_15_57 vssd1 vssd1 vccd1 vccd1 sky130_fd_sc_hd__decap_8
XTAP_126 vssd1 vccd1 sky130_fd_sc_hd__tapvpwrvgnd_1
XTAP_115 vssd1 vccd1 sky130_fd_sc_hd__tapvpwrvgnd_1
XTAP_104 vssd1 vccd1 sky130_fd_sc_hd__tapvpwrvgnd_1
XFILLER_11_3 vssd1 vssd1 vccd1 vccd1 sky130_fd_sc_hd__decap_12
XFILLER_22_126 vssd1 vssd1 vccd1 vccd1 sky130_fd_sc_hd__fill_1
XFILLER_13_159 vssd1 vssd1 vccd1 vccd1 sky130_fd_sc_hd__decap_4
XFILLER_3_38 vssd1 vssd1 vccd1 vccd1 sky130_fd_sc_hd__decap_12
XFILLER_8_141 vssd1 vssd1 vccd1 vccd1 sky130_fd_sc_hd__decap_12
X_273_ _273_/A vssd1 vssd1 vccd1 vccd1 sum_out[4] sky130_fd_sc_hd__buf_2
XFILLER_2_158 vssd1 vssd1 vccd1 vccd1 sky130_fd_sc_hd__decap_4
XFILLER_2_103 vssd1 vssd1 vccd1 vccd1 sky130_fd_sc_hd__decap_8
X_256_ _259_/CLK _256_/D _197_/Y vssd1 vssd1 vccd1 vccd1 _256_/Q sky130_fd_sc_hd__dfrtp_1
X_187_ _187_/A _187_/B vssd1 vssd1 vccd1 vccd1 _188_/B sky130_fd_sc_hd__nor2_1
XFILLER_18_68 vssd1 vssd1 vccd1 vccd1 sky130_fd_sc_hd__fill_2
X_239_ _242_/A vssd1 vssd1 vccd1 vccd1 _239_/Y sky130_fd_sc_hd__inv_2
XFILLER_1_60 vssd1 vssd1 vccd1 vccd1 sky130_fd_sc_hd__decap_4
Xinverters\[1\]._0_ inverters\[1\]._0_/A vssd1 vssd1 vccd1 vccd1 inverters\[2\]._0_/A
+ sky130_fd_sc_hd__inv_2
Xinverters\[19\]._0_ inverters\[19\]._0_/A vssd1 vssd1 vccd1 vccd1 inverters\[20\]._0_/A
+ sky130_fd_sc_hd__inv_2
XFILLER_19_143 vssd1 vssd1 vccd1 vccd1 sky130_fd_sc_hd__fill_2
XFILLER_13_7 vssd1 vssd1 vccd1 vccd1 sky130_fd_sc_hd__fill_1
XFILLER_10_91 vssd1 vssd1 vccd1 vccd1 sky130_fd_sc_hd__decap_4
Xtristate_ring_inputs\[7\]._0_ _153_/Y input24/X vssd1 vssd1 vccd1 vccd1 _190_/A sky130_fd_sc_hd__ebufn_4
XTAP_127 vssd1 vccd1 sky130_fd_sc_hd__tapvpwrvgnd_1
XTAP_116 vssd1 vccd1 sky130_fd_sc_hd__tapvpwrvgnd_1
XTAP_105 vssd1 vccd1 sky130_fd_sc_hd__tapvpwrvgnd_1
XFILLER_26_13 vssd1 vssd1 vccd1 vccd1 sky130_fd_sc_hd__decap_12
XFILLER_8_153 vssd1 vssd1 vccd1 vccd1 sky130_fd_sc_hd__decap_3
X_272_ _272_/A vssd1 vssd1 vccd1 vccd1 sum_out[3] sky130_fd_sc_hd__buf_2
XFILLER_12_26 vssd1 vssd1 vccd1 vccd1 sky130_fd_sc_hd__fill_2
XFILLER_12_37 vssd1 vssd1 vccd1 vccd1 sky130_fd_sc_hd__fill_1
XFILLER_5_123 vssd1 vssd1 vccd1 vccd1 sky130_fd_sc_hd__decap_12
XFILLER_23_25 vssd1 vssd1 vccd1 vccd1 sky130_fd_sc_hd__fill_2
XFILLER_4_82 vssd1 vssd1 vccd1 vccd1 sky130_fd_sc_hd__fill_2
X_255_ _255_/CLK _255_/D _196_/Y vssd1 vssd1 vccd1 vccd1 _255_/Q sky130_fd_sc_hd__dfrtp_1
XFILLER_0_29 vssd1 vssd1 vccd1 vccd1 sky130_fd_sc_hd__fill_2
X_186_ _177_/A _177_/B _180_/B _174_/B vssd1 vssd1 vccd1 vccd1 _187_/B sky130_fd_sc_hd__a211oi_1
XFILLER_24_90 vssd1 vssd1 vccd1 vccd1 sky130_fd_sc_hd__decap_6
X_238_ _238_/A _238_/B vssd1 vssd1 vccd1 vccd1 _262_/D sky130_fd_sc_hd__nor2_1
X_169_ _169_/A _169_/B vssd1 vssd1 vccd1 vccd1 _171_/A sky130_fd_sc_hd__nor2_1
XFILLER_20_26 vssd1 vssd1 vccd1 vccd1 sky130_fd_sc_hd__fill_2
XFILLER_19_111 vssd1 vssd1 vccd1 vccd1 sky130_fd_sc_hd__fill_1
XFILLER_15_48 vssd1 vssd1 vccd1 vccd1 sky130_fd_sc_hd__decap_8
XTAP_128 vssd1 vccd1 sky130_fd_sc_hd__tapvpwrvgnd_1
Xinverters\[0\]._0_ _154_/X vssd1 vssd1 vccd1 vccd1 inverters\[1\]._0_/A sky130_fd_sc_hd__inv_2
XTAP_117 vssd1 vccd1 sky130_fd_sc_hd__tapvpwrvgnd_1
XTAP_106 vssd1 vccd1 sky130_fd_sc_hd__tapvpwrvgnd_1
XPHY_0 vssd1 vssd1 vccd1 vccd1 sky130_fd_sc_hd__decap_3
Xinverters\[18\]._0_ inverters\[18\]._0_/A vssd1 vssd1 vccd1 vccd1 inverters\[19\]._0_/A
+ sky130_fd_sc_hd__inv_2
XFILLER_26_69 vssd1 vssd1 vccd1 vccd1 sky130_fd_sc_hd__decap_12
XFILLER_26_58 vssd1 vssd1 vccd1 vccd1 sky130_fd_sc_hd__decap_8
XFILLER_26_25 vssd1 vssd1 vccd1 vccd1 sky130_fd_sc_hd__decap_3
Xtristate_ring_inputs\[6\]._0_ _153_/Y input23/X vssd1 vssd1 vccd1 vccd1 _184_/A sky130_fd_sc_hd__ebufn_4
XFILLER_12_49 vssd1 vssd1 vccd1 vccd1 sky130_fd_sc_hd__decap_12
XFILLER_27_90 vssd1 vssd1 vccd1 vccd1 sky130_fd_sc_hd__decap_12
X_271_ _271_/A vssd1 vssd1 vccd1 vccd1 sum_out[2] sky130_fd_sc_hd__buf_2
XFILLER_5_135 vssd1 vssd1 vccd1 vccd1 sky130_fd_sc_hd__decap_3
XFILLER_4_61 vssd1 vssd1 vccd1 vccd1 sky130_fd_sc_hd__fill_1
XFILLER_13_81 vssd1 vssd1 vccd1 vccd1 sky130_fd_sc_hd__decap_8
X_254_ _255_/CLK _254_/D _195_/Y vssd1 vssd1 vccd1 vccd1 _254_/Q sky130_fd_sc_hd__dfrtp_1
XFILLER_2_116 vssd1 vssd1 vccd1 vccd1 sky130_fd_sc_hd__decap_4
X_185_ _185_/A _185_/B vssd1 vssd1 vccd1 vccd1 _188_/A sky130_fd_sc_hd__nand2_1
XFILLER_18_26 vssd1 vssd1 vccd1 vccd1 sky130_fd_sc_hd__fill_2
X_237_ ring_osc_counter_out[2] _237_/B vssd1 vssd1 vccd1 vccd1 _238_/B sky130_fd_sc_hd__nor2_1
XFILLER_24_80 vssd1 vssd1 vccd1 vccd1 sky130_fd_sc_hd__decap_4
X_168_ _168_/A _168_/B vssd1 vssd1 vccd1 vccd1 _169_/B sky130_fd_sc_hd__and2_1
XFILLER_10_82 vssd1 vssd1 vccd1 vccd1 sky130_fd_sc_hd__fill_2
Xtristate_sum_outputs\[7\]._0_ _276_/A input54/X vssd1 vssd1 vccd1 vccd1 ring_osc_out
+ sky130_fd_sc_hd__ebufn_8
XFILLER_25_159 vssd1 vssd1 vccd1 vccd1 sky130_fd_sc_hd__decap_4
XFILLER_25_126 vssd1 vssd1 vccd1 vccd1 sky130_fd_sc_hd__decap_12
XFILLER_16_159 vssd1 vssd1 vccd1 vccd1 sky130_fd_sc_hd__decap_4
XTAP_129 vssd1 vccd1 sky130_fd_sc_hd__tapvpwrvgnd_1
XTAP_118 vssd1 vccd1 sky130_fd_sc_hd__tapvpwrvgnd_1
XTAP_107 vssd1 vccd1 sky130_fd_sc_hd__tapvpwrvgnd_1
XPHY_1 vssd1 vssd1 vccd1 vccd1 sky130_fd_sc_hd__decap_3
XFILLER_12_162 vssd1 vssd1 vccd1 vccd1 sky130_fd_sc_hd__fill_1
XFILLER_5_158 vssd1 vssd1 vccd1 vccd1 sky130_fd_sc_hd__decap_4
X_270_ _270_/A vssd1 vssd1 vccd1 vccd1 sum_out[1] sky130_fd_sc_hd__buf_2
Xinverters\[17\]._0_ inverters\[17\]._0_/A vssd1 vssd1 vccd1 vccd1 inverters\[18\]._0_/A
+ sky130_fd_sc_hd__inv_2
XFILLER_4_95 vssd1 vssd1 vccd1 vccd1 sky130_fd_sc_hd__decap_6
Xtristate_ring_inputs\[5\]._0_ _153_/Y input22/X vssd1 vssd1 vccd1 vccd1 _179_/A sky130_fd_sc_hd__ebufn_4
XFILLER_2_139 vssd1 vssd1 vccd1 vccd1 sky130_fd_sc_hd__fill_1
X_184_ _184_/A _184_/B vssd1 vssd1 vccd1 vccd1 _185_/B sky130_fd_sc_hd__or2_1
X_253_ _255_/CLK _253_/D _193_/Y vssd1 vssd1 vccd1 vccd1 _253_/Q sky130_fd_sc_hd__dfrtp_1
X_236_ _242_/A vssd1 vssd1 vccd1 vccd1 _236_/Y sky130_fd_sc_hd__inv_2
X_167_ _168_/A _168_/B vssd1 vssd1 vccd1 vccd1 _169_/A sky130_fd_sc_hd__nor2_1
XFILLER_20_39 vssd1 vssd1 vccd1 vccd1 sky130_fd_sc_hd__decap_12
XFILLER_19_113 vssd1 vssd1 vccd1 vccd1 sky130_fd_sc_hd__decap_3
XFILLER_19_81 vssd1 vssd1 vccd1 vccd1 sky130_fd_sc_hd__decap_3
X_219_ ring_osc_counter_out[6] _227_/A vssd1 vssd1 vccd1 vccd1 _223_/A sky130_fd_sc_hd__nand2_1
XFILLER_16_127 vssd1 vssd1 vccd1 vccd1 sky130_fd_sc_hd__fill_2
XFILLER_15_39 vssd1 vssd1 vccd1 vccd1 sky130_fd_sc_hd__decap_4
XFILLER_15_28 vssd1 vssd1 vccd1 vccd1 sky130_fd_sc_hd__decap_4
XTAP_119 vssd1 vccd1 sky130_fd_sc_hd__tapvpwrvgnd_1
XFILLER_21_82 vssd1 vssd1 vccd1 vccd1 sky130_fd_sc_hd__decap_4
XTAP_108 vssd1 vccd1 sky130_fd_sc_hd__tapvpwrvgnd_1
Xclkbuf_0_clk clk vssd1 vssd1 vccd1 vccd1 clkbuf_0_clk/X sky130_fd_sc_hd__clkbuf_16
XPHY_2 vssd1 vssd1 vccd1 vccd1 sky130_fd_sc_hd__decap_3
XFILLER_21_152 vssd1 vssd1 vccd1 vccd1 sky130_fd_sc_hd__decap_4
XFILLER_13_119 vssd1 vssd1 vccd1 vccd1 sky130_fd_sc_hd__fill_1
XFILLER_7_95 vssd1 vssd1 vccd1 vccd1 sky130_fd_sc_hd__decap_4
XFILLER_12_141 vssd1 vssd1 vccd1 vccd1 sky130_fd_sc_hd__decap_4
Xtristate_sum_outputs\[6\]._0_ _275_/A input53/X vssd1 vssd1 vccd1 vccd1 ring_osc_out
+ sky130_fd_sc_hd__ebufn_8
XFILLER_12_18 vssd1 vssd1 vccd1 vccd1 sky130_fd_sc_hd__decap_8
XFILLER_4_41 vssd1 vssd1 vccd1 vccd1 sky130_fd_sc_hd__decap_12
XFILLER_4_74 vssd1 vssd1 vccd1 vccd1 sky130_fd_sc_hd__decap_8
XFILLER_4_85 vssd1 vssd1 vccd1 vccd1 sky130_fd_sc_hd__decap_3
XFILLER_23_17 vssd1 vssd1 vccd1 vccd1 sky130_fd_sc_hd__decap_8
X_252_ _255_/CLK _252_/D _192_/Y vssd1 vssd1 vccd1 vccd1 _252_/Q sky130_fd_sc_hd__dfrtp_2
X_183_ _184_/A _184_/B vssd1 vssd1 vccd1 vccd1 _185_/A sky130_fd_sc_hd__nand2_1
X_235_ _235_/A vssd1 vssd1 vccd1 vccd1 _242_/A sky130_fd_sc_hd__buf_2
XFILLER_1_6 vssd1 vssd1 vccd1 vccd1 sky130_fd_sc_hd__decap_6
Xinverters\[16\]._0_ inverters\[16\]._0_/A vssd1 vssd1 vccd1 vccd1 inverters\[17\]._0_/A
+ sky130_fd_sc_hd__inv_2
XFILLER_20_18 vssd1 vssd1 vccd1 vccd1 sky130_fd_sc_hd__decap_8
XFILLER_1_53 vssd1 vssd1 vccd1 vccd1 sky130_fd_sc_hd__decap_3
X_166_ _166_/A _166_/B vssd1 vssd1 vccd1 vccd1 _271_/A sky130_fd_sc_hd__xor2_2
Xtristate_ring_inputs\[4\]._0_ _153_/Y input21/X vssd1 vssd1 vccd1 vccd1 _173_/A sky130_fd_sc_hd__ebufn_2
XFILLER_19_158 vssd1 vssd1 vccd1 vccd1 sky130_fd_sc_hd__decap_4
X_149_ _148_/X _149_/A1 _246_/A vssd1 vssd1 vccd1 vccd1 _150_/A sky130_fd_sc_hd__mux2_1
X_218_ ring_osc_counter_out[5] ring_osc_counter_out[4] _234_/A vssd1 vssd1 vccd1 vccd1
+ _227_/A sky130_fd_sc_hd__and3_1
Xbypass1._0_ _153_/Y input33/X vssd1 vssd1 vccd1 vccd1 bypass2._0_/A sky130_fd_sc_hd__ebufn_1
XTAP_109 vssd1 vccd1 sky130_fd_sc_hd__tapvpwrvgnd_1
XPHY_3 vssd1 vssd1 vccd1 vccd1 sky130_fd_sc_hd__decap_3
XFILLER_7_30 vssd1 vssd1 vccd1 vccd1 sky130_fd_sc_hd__decap_4
XFILLER_7_74 vssd1 vssd1 vccd1 vccd1 sky130_fd_sc_hd__decap_12
XFILLER_5_116 vssd1 vssd1 vccd1 vccd1 sky130_fd_sc_hd__decap_4
Xtristate_sum_outputs\[5\]._0_ _274_/A input52/X vssd1 vssd1 vccd1 vccd1 ring_osc_out
+ sky130_fd_sc_hd__ebufn_8
XFILLER_4_53 vssd1 vssd1 vccd1 vccd1 sky130_fd_sc_hd__decap_8
X_251_ _245_/Y _215_/B done _250_/Y _246_/Y vssd1 vssd1 vccd1 vccd1 _251_/X sky130_fd_sc_hd__o311a_1
XFILLER_13_95 vssd1 vssd1 vccd1 vccd1 sky130_fd_sc_hd__decap_4
X_182_ _182_/A _182_/B vssd1 vssd1 vccd1 vccd1 _274_/A sky130_fd_sc_hd__xnor2_1
XFILLER_18_18 vssd1 vssd1 vccd1 vccd1 sky130_fd_sc_hd__decap_8
X_234_ _234_/A _234_/B vssd1 vssd1 vccd1 vccd1 _263_/D sky130_fd_sc_hd__nor2_1
X_165_ _165_/A _165_/B vssd1 vssd1 vccd1 vccd1 _166_/B sky130_fd_sc_hd__nor2_1
X_217_ _259_/Q _214_/A _216_/X ring_osc_counter_out[2] ring_osc_counter_out[3] vssd1
+ vssd1 vccd1 vccd1 _234_/A sky130_fd_sc_hd__o2111a_1
X_148_ _252_/Q _148_/B vssd1 vssd1 vccd1 vccd1 _148_/X sky130_fd_sc_hd__xor2_1
XFILLER_10_74 vssd1 vssd1 vccd1 vccd1 sky130_fd_sc_hd__decap_8
XFILLER_10_85 vssd1 vssd1 vccd1 vccd1 sky130_fd_sc_hd__decap_3
Xinverters\[15\]._0_ inverters\[15\]._0_/A vssd1 vssd1 vccd1 vccd1 inverters\[16\]._0_/A
+ sky130_fd_sc_hd__inv_2
XFILLER_21_73 vssd1 vssd1 vccd1 vccd1 sky130_fd_sc_hd__fill_1
XFILLER_21_40 vssd1 vssd1 vccd1 vccd1 sky130_fd_sc_hd__decap_12
XPHY_4 vssd1 vssd1 vccd1 vccd1 sky130_fd_sc_hd__decap_3
Xtristate_ring_inputs\[3\]._0_ _153_/Y input20/X vssd1 vssd1 vccd1 vccd1 _168_/A sky130_fd_sc_hd__ebufn_2
XFILLER_7_64 vssd1 vssd1 vccd1 vccd1 sky130_fd_sc_hd__decap_4
XFILLER_7_86 vssd1 vssd1 vccd1 vccd1 sky130_fd_sc_hd__decap_6
XFILLER_26_29 vssd1 vssd1 vccd1 vccd1 sky130_fd_sc_hd__decap_12
XFILLER_12_154 vssd1 vssd1 vccd1 vccd1 sky130_fd_sc_hd__decap_8
XFILLER_5_106 vssd1 vssd1 vccd1 vccd1 sky130_fd_sc_hd__decap_6
X_250_ _245_/Y _249_/X _258_/Q vssd1 vssd1 vccd1 vccd1 _250_/Y sky130_fd_sc_hd__o21ai_1
XFILLER_13_52 vssd1 vssd1 vccd1 vccd1 sky130_fd_sc_hd__decap_4
XFILLER_1_120 vssd1 vssd1 vccd1 vccd1 sky130_fd_sc_hd__decap_4
X_181_ _177_/A _177_/B _174_/B vssd1 vssd1 vccd1 vccd1 _182_/B sky130_fd_sc_hd__a21oi_1
X_233_ ring_osc_counter_out[3] _238_/A vssd1 vssd1 vccd1 vccd1 _234_/B sky130_fd_sc_hd__nor2_1
Xtristate_sum_outputs\[4\]._0_ _273_/A input51/X vssd1 vssd1 vccd1 vccd1 ring_osc_out
+ sky130_fd_sc_hd__ebufn_8
XFILLER_1_33 vssd1 vssd1 vccd1 vccd1 sky130_fd_sc_hd__decap_12
X_164_ _164_/A _164_/B vssd1 vssd1 vccd1 vccd1 _165_/B sky130_fd_sc_hd__and2_1
X_216_ ring_osc_counter_out[1] ring_osc_counter_out[0] vssd1 vssd1 vccd1 vccd1 _216_/X
+ sky130_fd_sc_hd__and2_1
XFILLER_18_3 vssd1 vssd1 vccd1 vccd1 sky130_fd_sc_hd__decap_4
X_147_ _147_/A vssd1 vssd1 vccd1 vccd1 _253_/D sky130_fd_sc_hd__clkbuf_1
XFILLER_21_52 vssd1 vssd1 vccd1 vccd1 sky130_fd_sc_hd__decap_4
XFILLER_16_119 vssd1 vssd1 vccd1 vccd1 sky130_fd_sc_hd__decap_8
XPHY_5 vssd1 vssd1 vccd1 vccd1 sky130_fd_sc_hd__decap_3
XFILLER_7_43 vssd1 vssd1 vccd1 vccd1 sky130_fd_sc_hd__decap_12
XFILLER_16_96 vssd1 vssd1 vccd1 vccd1 sky130_fd_sc_hd__fill_2
Xinverters\[14\]._0_ inverters\[14\]._0_/A vssd1 vssd1 vccd1 vccd1 inverters\[15\]._0_/A
+ sky130_fd_sc_hd__inv_2
XFILLER_8_104 vssd1 vssd1 vccd1 vccd1 sky130_fd_sc_hd__decap_12
XFILLER_8_159 vssd1 vssd1 vccd1 vccd1 sky130_fd_sc_hd__decap_4
Xtristate_ring_inputs\[2\]._0_ _153_/Y input19/X vssd1 vssd1 vccd1 vccd1 _164_/A sky130_fd_sc_hd__ebufn_4
XFILLER_4_162 vssd1 vssd1 vccd1 vccd1 sky130_fd_sc_hd__fill_1
X_180_ _187_/A _180_/B vssd1 vssd1 vccd1 vccd1 _182_/A sky130_fd_sc_hd__nor2_1
XFILLER_24_96 vssd1 vssd1 vccd1 vccd1 sky130_fd_sc_hd__fill_1
X_232_ ring_osc_counter_out[2] _237_/B vssd1 vssd1 vccd1 vccd1 _238_/A sky130_fd_sc_hd__and2_1
X_163_ _164_/A _164_/B vssd1 vssd1 vccd1 vccd1 _165_/A sky130_fd_sc_hd__nor2_1
XFILLER_1_67 vssd1 vssd1 vccd1 vccd1 sky130_fd_sc_hd__decap_4
XFILLER_1_45 vssd1 vssd1 vccd1 vccd1 sky130_fd_sc_hd__decap_8
XFILLER_25_109 vssd1 vssd1 vccd1 vccd1 sky130_fd_sc_hd__decap_3
X_215_ _259_/Q _215_/B vssd1 vssd1 vccd1 vccd1 done sky130_fd_sc_hd__nor2_4
X_146_ _145_/X _253_/Q _146_/S vssd1 vssd1 vccd1 vccd1 _147_/A sky130_fd_sc_hd__mux2_1
Xtristate_sum_outputs\[3\]._0_ _272_/A input50/X vssd1 vssd1 vccd1 vccd1 ring_osc_out
+ sky130_fd_sc_hd__ebufn_8
XPHY_6 vssd1 vssd1 vccd1 vccd1 sky130_fd_sc_hd__decap_3
XFILLER_7_55 vssd1 vssd1 vccd1 vccd1 sky130_fd_sc_hd__fill_1
X_129_ _256_/Q _249_/C vssd1 vssd1 vccd1 vccd1 _129_/Y sky130_fd_sc_hd__xnor2_1
XFILLER_21_145 vssd1 vssd1 vccd1 vccd1 sky130_fd_sc_hd__decap_4
XFILLER_21_134 vssd1 vssd1 vccd1 vccd1 sky130_fd_sc_hd__fill_1
XFILLER_16_20 vssd1 vssd1 vccd1 vccd1 sky130_fd_sc_hd__decap_8
XFILLER_8_116 vssd1 vssd1 vccd1 vccd1 sky130_fd_sc_hd__decap_12
XFILLER_27_41 vssd1 vssd1 vccd1 vccd1 sky130_fd_sc_hd__decap_12
XFILLER_27_85 vssd1 vssd1 vccd1 vccd1 sky130_fd_sc_hd__fill_2
XFILLER_4_67 vssd1 vssd1 vccd1 vccd1 sky130_fd_sc_hd__decap_4
XFILLER_4_130 vssd1 vssd1 vccd1 vccd1 sky130_fd_sc_hd__decap_3
Xinverters\[13\]._0_ inverters\[13\]._0_/A vssd1 vssd1 vccd1 vccd1 inverters\[14\]._0_/A
+ sky130_fd_sc_hd__inv_2
XFILLER_8_3 vssd1 vssd1 vccd1 vccd1 sky130_fd_sc_hd__decap_6
Xtristate_ext_inputs\[7\]._0_ input8/X input16/X vssd1 vssd1 vccd1 vccd1 _190_/A sky130_fd_sc_hd__ebufn_4
Xtristate_ring_inputs\[1\]._0_ _153_/Y input18/X vssd1 vssd1 vccd1 vccd1 _161_/A sky130_fd_sc_hd__ebufn_4
XFILLER_24_53 vssd1 vssd1 vccd1 vccd1 sky130_fd_sc_hd__decap_4
X_231_ _259_/Q _215_/B _216_/X vssd1 vssd1 vccd1 vccd1 _237_/B sky130_fd_sc_hd__o21a_1
X_162_ _156_/A _156_/B _160_/B _161_/X vssd1 vssd1 vccd1 vccd1 _166_/A sky130_fd_sc_hd__a31o_2
XTAP_90 vssd1 vccd1 sky130_fd_sc_hd__tapvpwrvgnd_1
Xinput1 a_input[0] vssd1 vssd1 vccd1 vccd1 input1/X sky130_fd_sc_hd__clkbuf_1
XFILLER_25_6 vssd1 vssd1 vccd1 vccd1 sky130_fd_sc_hd__decap_6
X_214_ _214_/A vssd1 vssd1 vccd1 vccd1 _215_/B sky130_fd_sc_hd__clkbuf_2
X_145_ _144_/Y _145_/A1 _244_/A vssd1 vssd1 vccd1 vccd1 _145_/X sky130_fd_sc_hd__mux2_1
XFILLER_18_162 vssd1 vssd1 vccd1 vccd1 sky130_fd_sc_hd__fill_1
XFILLER_21_65 vssd1 vssd1 vccd1 vccd1 sky130_fd_sc_hd__fill_1
XFILLER_15_143 vssd1 vssd1 vccd1 vccd1 sky130_fd_sc_hd__decap_6
XFILLER_15_121 vssd1 vssd1 vccd1 vccd1 sky130_fd_sc_hd__fill_2
XPHY_7 vssd1 vssd1 vccd1 vccd1 sky130_fd_sc_hd__decap_3
X_128_ _128_/A vssd1 vssd1 vccd1 vccd1 _257_/D sky130_fd_sc_hd__clkbuf_1
XFILLER_23_3 vssd1 vssd1 vccd1 vccd1 sky130_fd_sc_hd__decap_8
XFILLER_16_76 vssd1 vssd1 vccd1 vccd1 sky130_fd_sc_hd__decap_8
XFILLER_16_65 vssd1 vssd1 vccd1 vccd1 sky130_fd_sc_hd__decap_4
XFILLER_8_128 vssd1 vssd1 vccd1 vccd1 sky130_fd_sc_hd__decap_12
Xtristate_sum_outputs\[2\]._0_ _271_/A input49/X vssd1 vssd1 vccd1 vccd1 ring_osc_out
+ sky130_fd_sc_hd__ebufn_8
XFILLER_27_53 vssd1 vssd1 vccd1 vccd1 sky130_fd_sc_hd__decap_3
XFILLER_4_24 vssd1 vssd1 vccd1 vccd1 sky130_fd_sc_hd__decap_4
XFILLER_13_99 vssd1 vssd1 vccd1 vccd1 sky130_fd_sc_hd__fill_1
XFILLER_1_134 vssd1 vssd1 vccd1 vccd1 sky130_fd_sc_hd__decap_4
XFILLER_1_101 vssd1 vssd1 vccd1 vccd1 sky130_fd_sc_hd__decap_4
X_230_ _230_/A vssd1 vssd1 vccd1 vccd1 _230_/Y sky130_fd_sc_hd__inv_2
X_161_ _161_/A _161_/B vssd1 vssd1 vccd1 vccd1 _161_/X sky130_fd_sc_hd__and2_1
Xcontrol2._0_ control2._0_/A input34/X vssd1 vssd1 vccd1 vccd1 ring_osc_out sky130_fd_sc_hd__ebufn_8
XTAP_91 vssd1 vccd1 sky130_fd_sc_hd__tapvpwrvgnd_1
Xinput2 a_input[1] vssd1 vssd1 vccd1 vccd1 input2/X sky130_fd_sc_hd__clkbuf_1
Xinverters\[12\]._0_ inverters\[12\]._0_/A vssd1 vssd1 vccd1 vccd1 inverters\[13\]._0_/A
+ sky130_fd_sc_hd__inv_2
XTAP_80 vssd1 vccd1 sky130_fd_sc_hd__tapvpwrvgnd_1
XFILLER_27_141 vssd1 vssd1 vccd1 vccd1 sky130_fd_sc_hd__decap_8
Xtristate_ext_inputs\[6\]._0_ input7/X input15/X vssd1 vssd1 vccd1 vccd1 _184_/A sky130_fd_sc_hd__ebufn_4
X_213_ _258_/Q _257_/Q _256_/Q _249_/C vssd1 vssd1 vccd1 vccd1 _214_/A sky130_fd_sc_hd__or4_1