* NGSPICE file created from instrumented_adder.ext - technology: sky130A

* Black-box entry subcircuit for sky130_fd_sc_hd__decap_6 abstract view
.subckt sky130_fd_sc_hd__decap_6 VGND VNB VPB VPWR
.ends

* Black-box entry subcircuit for sky130_fd_sc_hd__decap_4 abstract view
.subckt sky130_fd_sc_hd__decap_4 VGND VNB VPB VPWR
.ends

* Black-box entry subcircuit for sky130_fd_sc_hd__fill_2 abstract view
.subckt sky130_fd_sc_hd__fill_2 VGND VNB VPB VPWR
.ends

* Black-box entry subcircuit for sky130_fd_sc_hd__buf_2 abstract view
.subckt sky130_fd_sc_hd__buf_2 A VGND VNB VPB VPWR X
.ends

* Black-box entry subcircuit for sky130_fd_sc_hd__decap_8 abstract view
.subckt sky130_fd_sc_hd__decap_8 VGND VNB VPB VPWR
.ends

* Black-box entry subcircuit for sky130_fd_sc_hd__dfrtp_1 abstract view
.subckt sky130_fd_sc_hd__dfrtp_1 CLK D RESET_B VGND VNB VPB VPWR Q
.ends

* Black-box entry subcircuit for sky130_fd_sc_hd__decap_12 abstract view
.subckt sky130_fd_sc_hd__decap_12 VGND VNB VPB VPWR
.ends

* Black-box entry subcircuit for sky130_fd_sc_hd__inv_2 abstract view
.subckt sky130_fd_sc_hd__inv_2 A VGND VNB VPB VPWR Y
.ends

* Black-box entry subcircuit for sky130_fd_sc_hd__tapvpwrvgnd_1 abstract view
.subckt sky130_fd_sc_hd__tapvpwrvgnd_1 VGND VPWR
.ends

* Black-box entry subcircuit for sky130_fd_sc_hd__and2_1 abstract view
.subckt sky130_fd_sc_hd__and2_1 A B VGND VNB VPB VPWR X
.ends

* Black-box entry subcircuit for sky130_fd_sc_hd__dfrtp_4 abstract view
.subckt sky130_fd_sc_hd__dfrtp_4 CLK D RESET_B VGND VNB VPB VPWR Q
.ends

* Black-box entry subcircuit for sky130_fd_sc_hd__fill_1 abstract view
.subckt sky130_fd_sc_hd__fill_1 VGND VNB VPB VPWR
.ends

* Black-box entry subcircuit for sky130_fd_sc_hd__mux2_1 abstract view
.subckt sky130_fd_sc_hd__mux2_1 A0 A1 S VGND VNB VPB VPWR X
.ends

* Black-box entry subcircuit for sky130_fd_sc_hd__or2_1 abstract view
.subckt sky130_fd_sc_hd__or2_1 A B VGND VNB VPB VPWR X
.ends

* Black-box entry subcircuit for sky130_fd_sc_hd__decap_3 abstract view
.subckt sky130_fd_sc_hd__decap_3 VGND VNB VPB VPWR
.ends

* Black-box entry subcircuit for sky130_fd_sc_hd__clkbuf_1 abstract view
.subckt sky130_fd_sc_hd__clkbuf_1 A VGND VNB VPB VPWR X
.ends

* Black-box entry subcircuit for sky130_fd_sc_hd__and3_1 abstract view
.subckt sky130_fd_sc_hd__and3_1 A B C VGND VNB VPB VPWR X
.ends

* Black-box entry subcircuit for sky130_fd_sc_hd__nand2_1 abstract view
.subckt sky130_fd_sc_hd__nand2_1 A B VGND VNB VPB VPWR Y
.ends

* Black-box entry subcircuit for sky130_fd_sc_hd__a21oi_1 abstract view
.subckt sky130_fd_sc_hd__a21oi_1 A1 A2 B1 VGND VNB VPB VPWR Y
.ends

* Black-box entry subcircuit for sky130_fd_sc_hd__ebufn_2 abstract view
.subckt sky130_fd_sc_hd__ebufn_2 A TE_B VGND VNB VPB VPWR Z
.ends

* Black-box entry subcircuit for sky130_fd_sc_hd__clkbuf_2 abstract view
.subckt sky130_fd_sc_hd__clkbuf_2 A VGND VNB VPB VPWR X
.ends

* Black-box entry subcircuit for sky130_fd_sc_hd__nor2_1 abstract view
.subckt sky130_fd_sc_hd__nor2_1 A B VGND VNB VPB VPWR Y
.ends

* Black-box entry subcircuit for sky130_fd_sc_hd__o21a_1 abstract view
.subckt sky130_fd_sc_hd__o21a_1 A1 A2 B1 VGND VNB VPB VPWR X
.ends

* Black-box entry subcircuit for sky130_fd_sc_hd__ebufn_8 abstract view
.subckt sky130_fd_sc_hd__ebufn_8 A TE_B VGND VNB VPB VPWR Z
.ends

* Black-box entry subcircuit for sky130_fd_sc_hd__or3_1 abstract view
.subckt sky130_fd_sc_hd__or3_1 A B C VGND VNB VPB VPWR X
.ends

* Black-box entry subcircuit for sky130_fd_sc_hd__o22a_1 abstract view
.subckt sky130_fd_sc_hd__o22a_1 A1 A2 B1 B2 VGND VNB VPB VPWR X
.ends

* Black-box entry subcircuit for sky130_fd_sc_hd__clkbuf_16 abstract view
.subckt sky130_fd_sc_hd__clkbuf_16 A VGND VNB VPB VPWR X
.ends

* Black-box entry subcircuit for sky130_fd_sc_hd__dlymetal6s2s_1 abstract view
.subckt sky130_fd_sc_hd__dlymetal6s2s_1 A VGND VNB VPB VPWR X
.ends

* Black-box entry subcircuit for sky130_fd_sc_hd__or4_1 abstract view
.subckt sky130_fd_sc_hd__or4_1 A B C D VGND VNB VPB VPWR X
.ends

* Black-box entry subcircuit for sky130_fd_sc_hd__ebufn_1 abstract view
.subckt sky130_fd_sc_hd__ebufn_1 A TE_B VGND VNB VPB VPWR Z
.ends

* Black-box entry subcircuit for sky130_fd_sc_hd__xnor2_2 abstract view
.subckt sky130_fd_sc_hd__xnor2_2 A B VGND VNB VPB VPWR Y
.ends

* Black-box entry subcircuit for sky130_fd_sc_hd__xor2_1 abstract view
.subckt sky130_fd_sc_hd__xor2_1 A B VGND VNB VPB VPWR X
.ends

* Black-box entry subcircuit for sky130_fd_sc_hd__and2b_1 abstract view
.subckt sky130_fd_sc_hd__and2b_1 A_N B VGND VNB VPB VPWR X
.ends

* Black-box entry subcircuit for sky130_fd_sc_hd__a21oi_4 abstract view
.subckt sky130_fd_sc_hd__a21oi_4 A1 A2 B1 VGND VNB VPB VPWR Y
.ends

* Black-box entry subcircuit for sky130_fd_sc_hd__clkinv_2 abstract view
.subckt sky130_fd_sc_hd__clkinv_2 A VGND VNB VPB VPWR Y
.ends

* Black-box entry subcircuit for sky130_fd_sc_hd__a31o_1 abstract view
.subckt sky130_fd_sc_hd__a31o_1 A1 A2 A3 B1 VGND VNB VPB VPWR X
.ends

* Black-box entry subcircuit for sky130_fd_sc_hd__a21o_1 abstract view
.subckt sky130_fd_sc_hd__a21o_1 A1 A2 B1 VGND VNB VPB VPWR X
.ends

* Black-box entry subcircuit for sky130_fd_sc_hd__a2bb2o_1 abstract view
.subckt sky130_fd_sc_hd__a2bb2o_1 A1_N A2_N B1 B2 VGND VNB VPB VPWR X
.ends

* Black-box entry subcircuit for sky130_fd_sc_hd__xnor2_1 abstract view
.subckt sky130_fd_sc_hd__xnor2_1 A B VGND VNB VPB VPWR Y
.ends

* Black-box entry subcircuit for sky130_fd_sc_hd__nand3_1 abstract view
.subckt sky130_fd_sc_hd__nand3_1 A B C VGND VNB VPB VPWR Y
.ends

* Black-box entry subcircuit for sky130_fd_sc_hd__o211a_1 abstract view
.subckt sky130_fd_sc_hd__o211a_1 A1 A2 B1 C1 VGND VNB VPB VPWR X
.ends

* Black-box entry subcircuit for sky130_fd_sc_hd__a22o_1 abstract view
.subckt sky130_fd_sc_hd__a22o_1 A1 A2 B1 B2 VGND VNB VPB VPWR X
.ends

* Black-box entry subcircuit for sky130_fd_sc_hd__and4_1 abstract view
.subckt sky130_fd_sc_hd__and4_1 A B C D VGND VNB VPB VPWR X
.ends

* Black-box entry subcircuit for sky130_fd_sc_hd__o311a_1 abstract view
.subckt sky130_fd_sc_hd__o311a_1 A1 A2 A3 B1 C1 VGND VNB VPB VPWR X
.ends

* Black-box entry subcircuit for sky130_fd_sc_hd__nand2_4 abstract view
.subckt sky130_fd_sc_hd__nand2_4 A B VGND VNB VPB VPWR Y
.ends

* Black-box entry subcircuit for sky130_fd_sc_hd__or4_2 abstract view
.subckt sky130_fd_sc_hd__or4_2 A B C D VGND VNB VPB VPWR X
.ends

* Black-box entry subcircuit for sky130_fd_sc_hd__o21ai_1 abstract view
.subckt sky130_fd_sc_hd__o21ai_1 A1 A2 B1 VGND VNB VPB VPWR Y
.ends

.subckt instrumented_adder a_input[0] a_input[1] a_input[2] a_input[3] a_input[4]
+ a_input[5] a_input[6] a_input[7] a_input_ext_bit_b[0] a_input_ext_bit_b[1] a_input_ext_bit_b[2]
+ a_input_ext_bit_b[3] a_input_ext_bit_b[4] a_input_ext_bit_b[5] a_input_ext_bit_b[6]
+ a_input_ext_bit_b[7] a_input_ring_bit_b[0] a_input_ring_bit_b[1] a_input_ring_bit_b[2]
+ a_input_ring_bit_b[3] a_input_ring_bit_b[4] a_input_ring_bit_b[5] a_input_ring_bit_b[6]
+ a_input_ring_bit_b[7] b_input[0] b_input[1] b_input[2] b_input[3] b_input[4] b_input[5]
+ b_input[6] b_input[7] bypass_b clk control_b counter_enable counter_load done extra_inverter
+ integration_time[0] integration_time[1] integration_time[2] integration_time[3]
+ integration_time[4] integration_time[5] integration_time[6] integration_time[7]
+ reset ring_osc_counter_out[0] ring_osc_counter_out[1] ring_osc_counter_out[2] ring_osc_counter_out[3]
+ ring_osc_counter_out[4] ring_osc_counter_out[5] ring_osc_counter_out[6] ring_osc_counter_out[7]
+ ring_osc_out s_output_bit_b[0] s_output_bit_b[1] s_output_bit_b[2] s_output_bit_b[3]
+ s_output_bit_b[4] s_output_bit_b[5] s_output_bit_b[6] s_output_bit_b[7] stop_b sum_out[0]
+ sum_out[1] sum_out[2] sum_out[3] sum_out[4] sum_out[5] sum_out[6] sum_out[7] vccd1
+ vssd1
XFILLER_22_144 vssd1 vssd1 vccd1 vccd1 sky130_fd_sc_hd__decap_6
XFILLER_22_122 vssd1 vssd1 vccd1 vccd1 sky130_fd_sc_hd__decap_4
XFILLER_26_96 vssd1 vssd1 vccd1 vccd1 sky130_fd_sc_hd__fill_2
X_294_ _294_/A vssd1 vssd1 vccd1 vccd1 sum_out[1] sky130_fd_sc_hd__buf_2
XFILLER_12_65 vssd1 vssd1 vccd1 vccd1 sky130_fd_sc_hd__decap_4
XFILLER_12_32 vssd1 vssd1 vccd1 vccd1 sky130_fd_sc_hd__decap_8
X_277_ _281_/CLK _277_/D _199_/Y vssd1 vssd1 vccd1 vccd1 _277_/Q sky130_fd_sc_hd__dfrtp_1
XFILLER_5_140 vssd1 vssd1 vccd1 vccd1 sky130_fd_sc_hd__decap_4
XFILLER_23_97 vssd1 vssd1 vccd1 vccd1 sky130_fd_sc_hd__decap_6
X_200_ _239_/A vssd1 vssd1 vccd1 vccd1 _205_/A sky130_fd_sc_hd__buf_2
XFILLER_0_24 vssd1 vssd1 vccd1 vccd1 sky130_fd_sc_hd__decap_4
XFILLER_20_98 vssd1 vssd1 vccd1 vccd1 sky130_fd_sc_hd__decap_12
XFILLER_13_3 vssd1 vssd1 vccd1 vccd1 sky130_fd_sc_hd__decap_6
XFILLER_6_78 vssd1 vssd1 vccd1 vccd1 sky130_fd_sc_hd__decap_6
XFILLER_25_153 vssd1 vssd1 vccd1 vccd1 sky130_fd_sc_hd__decap_4
Xinverters\[4\]._0_ inverters\[4\]._0_/A vssd1 vssd1 vccd1 vccd1 inverters\[5\]._0_/A
+ sky130_fd_sc_hd__inv_2
XTAP_123 vssd1 vccd1 sky130_fd_sc_hd__tapvpwrvgnd_1
XTAP_112 vssd1 vccd1 sky130_fd_sc_hd__tapvpwrvgnd_1
XTAP_101 vssd1 vccd1 sky130_fd_sc_hd__tapvpwrvgnd_1
X_293_ _293_/A vssd1 vssd1 vccd1 vccd1 sum_out[0] sky130_fd_sc_hd__buf_2
XFILLER_9_138 vssd1 vssd1 vccd1 vccd1 sky130_fd_sc_hd__decap_4
X_276_ _281_/CLK _276_/D _198_/Y vssd1 vssd1 vccd1 vccd1 _276_/Q sky130_fd_sc_hd__dfrtp_1
X_259_ _259_/A _259_/B vssd1 vssd1 vccd1 vccd1 _260_/B sky130_fd_sc_hd__and2_1
XFILLER_18_76 vssd1 vssd1 vccd1 vccd1 sky130_fd_sc_hd__decap_8
XFILLER_18_32 vssd1 vssd1 vccd1 vccd1 sky130_fd_sc_hd__decap_12
XFILLER_18_21 vssd1 vssd1 vccd1 vccd1 sky130_fd_sc_hd__decap_6
XFILLER_20_66 vssd1 vssd1 vccd1 vccd1 sky130_fd_sc_hd__decap_12
XFILLER_20_33 vssd1 vssd1 vccd1 vccd1 sky130_fd_sc_hd__decap_8
XFILLER_19_151 vssd1 vssd1 vccd1 vccd1 sky130_fd_sc_hd__decap_6
XFILLER_15_66 vssd1 vssd1 vccd1 vccd1 sky130_fd_sc_hd__decap_4
XTAP_124 vssd1 vccd1 sky130_fd_sc_hd__tapvpwrvgnd_1
XTAP_113 vssd1 vccd1 sky130_fd_sc_hd__tapvpwrvgnd_1
XTAP_102 vssd1 vccd1 sky130_fd_sc_hd__tapvpwrvgnd_1
XFILLER_26_76 vssd1 vssd1 vccd1 vccd1 sky130_fd_sc_hd__decap_8
XFILLER_26_32 vssd1 vssd1 vccd1 vccd1 sky130_fd_sc_hd__decap_12
XFILLER_26_21 vssd1 vssd1 vccd1 vccd1 sky130_fd_sc_hd__decap_6
X_292_ ring_osc_out _292_/D _215_/Y vssd1 vssd1 vccd1 vccd1 _292_/Q sky130_fd_sc_hd__dfrtp_4
XFILLER_13_113 vssd1 vssd1 vccd1 vccd1 sky130_fd_sc_hd__fill_2
XFILLER_7_9 vssd1 vssd1 vccd1 vccd1 sky130_fd_sc_hd__fill_1
Xinverters\[3\]._0_ inverters\[3\]._0_/A vssd1 vssd1 vccd1 vccd1 inverters\[4\]._0_/A
+ sky130_fd_sc_hd__inv_2
XFILLER_12_45 vssd1 vssd1 vccd1 vccd1 sky130_fd_sc_hd__decap_8
XFILLER_5_6 vssd1 vssd1 vccd1 vccd1 sky130_fd_sc_hd__decap_4
XFILLER_10_105 vssd1 vssd1 vccd1 vccd1 sky130_fd_sc_hd__decap_4
XFILLER_10_138 vssd1 vssd1 vccd1 vccd1 sky130_fd_sc_hd__fill_2
XFILLER_5_153 vssd1 vssd1 vccd1 vccd1 sky130_fd_sc_hd__decap_4
X_275_ _274_/X _280_/Q _275_/S vssd1 vssd1 vccd1 vccd1 _275_/X sky130_fd_sc_hd__mux2_1
XFILLER_4_90 vssd1 vssd1 vccd1 vccd1 sky130_fd_sc_hd__decap_4
XFILLER_23_55 vssd1 vssd1 vccd1 vccd1 sky130_fd_sc_hd__fill_1
XFILLER_2_112 vssd1 vssd1 vccd1 vccd1 sky130_fd_sc_hd__decap_8
XFILLER_0_48 vssd1 vssd1 vccd1 vccd1 sky130_fd_sc_hd__decap_8
XFILLER_9_24 vssd1 vssd1 vccd1 vccd1 sky130_fd_sc_hd__fill_1
X_258_ _258_/A vssd1 vssd1 vccd1 vccd1 _274_/S sky130_fd_sc_hd__buf_2
X_189_ _189_/A _189_/B vssd1 vssd1 vccd1 vccd1 _190_/A sky130_fd_sc_hd__or2_1
XFILLER_18_44 vssd1 vssd1 vccd1 vccd1 sky130_fd_sc_hd__decap_8
XFILLER_20_78 vssd1 vssd1 vccd1 vccd1 sky130_fd_sc_hd__decap_6
XFILLER_6_25 vssd1 vssd1 vccd1 vccd1 sky130_fd_sc_hd__decap_3
XFILLER_19_141 vssd1 vssd1 vccd1 vccd1 sky130_fd_sc_hd__fill_1
XFILLER_25_122 vssd1 vssd1 vccd1 vccd1 sky130_fd_sc_hd__decap_8
XFILLER_25_111 vssd1 vssd1 vccd1 vccd1 sky130_fd_sc_hd__fill_1
XFILLER_15_34 vssd1 vssd1 vccd1 vccd1 sky130_fd_sc_hd__decap_12
XTAP_125 vssd1 vccd1 sky130_fd_sc_hd__tapvpwrvgnd_1
XTAP_114 vssd1 vccd1 sky130_fd_sc_hd__tapvpwrvgnd_1
XFILLER_22_136 vssd1 vssd1 vccd1 vccd1 sky130_fd_sc_hd__decap_4
XTAP_103 vssd1 vccd1 sky130_fd_sc_hd__tapvpwrvgnd_1
XFILLER_26_88 vssd1 vssd1 vccd1 vccd1 sky130_fd_sc_hd__decap_8
XFILLER_26_44 vssd1 vssd1 vccd1 vccd1 sky130_fd_sc_hd__decap_12
X_291_ _214_/Y _291_/D _217_/Y vssd1 vssd1 vccd1 vccd1 ring_osc_counter_out[7] sky130_fd_sc_hd__dfrtp_4
XFILLER_7_90 vssd1 vssd1 vccd1 vccd1 sky130_fd_sc_hd__fill_2
XFILLER_12_79 vssd1 vssd1 vccd1 vccd1 sky130_fd_sc_hd__decap_4
XFILLER_12_57 vssd1 vssd1 vccd1 vccd1 sky130_fd_sc_hd__decap_4
XFILLER_12_24 vssd1 vssd1 vccd1 vccd1 sky130_fd_sc_hd__decap_4
X_274_ _273_/Y _274_/A1 _274_/S vssd1 vssd1 vccd1 vccd1 _274_/X sky130_fd_sc_hd__mux2_1
XFILLER_23_89 vssd1 vssd1 vccd1 vccd1 sky130_fd_sc_hd__decap_4
XFILLER_23_23 vssd1 vssd1 vccd1 vccd1 sky130_fd_sc_hd__fill_1
XFILLER_2_124 vssd1 vssd1 vccd1 vccd1 sky130_fd_sc_hd__decap_4
Xinverters\[2\]._0_ inverters\[2\]._0_/A vssd1 vssd1 vccd1 vccd1 inverters\[3\]._0_/A
+ sky130_fd_sc_hd__inv_2
X_257_ _257_/A vssd1 vssd1 vccd1 vccd1 _283_/D sky130_fd_sc_hd__clkbuf_1
X_188_ _193_/B _188_/B _188_/C vssd1 vssd1 vccd1 vccd1 _189_/B sky130_fd_sc_hd__and3_1
XFILLER_18_67 vssd1 vssd1 vccd1 vccd1 sky130_fd_sc_hd__decap_6
XFILLER_20_24 vssd1 vssd1 vccd1 vccd1 sky130_fd_sc_hd__decap_4
XFILLER_20_13 vssd1 vssd1 vccd1 vccd1 sky130_fd_sc_hd__decap_4
XFILLER_19_131 vssd1 vssd1 vccd1 vccd1 sky130_fd_sc_hd__fill_1
XFILLER_20_7 vssd1 vssd1 vccd1 vccd1 sky130_fd_sc_hd__fill_1
XFILLER_15_46 vssd1 vssd1 vccd1 vccd1 sky130_fd_sc_hd__decap_3
XTAP_115 vssd1 vccd1 sky130_fd_sc_hd__tapvpwrvgnd_1
XTAP_104 vssd1 vccd1 sky130_fd_sc_hd__tapvpwrvgnd_1
XFILLER_16_156 vssd1 vssd1 vccd1 vccd1 sky130_fd_sc_hd__fill_1
XFILLER_11_3 vssd1 vssd1 vccd1 vccd1 sky130_fd_sc_hd__decap_12
XFILLER_26_67 vssd1 vssd1 vccd1 vccd1 sky130_fd_sc_hd__decap_6
XFILLER_22_115 vssd1 vssd1 vccd1 vccd1 sky130_fd_sc_hd__decap_4
X_290_ _213_/Y _290_/D _227_/Y vssd1 vssd1 vccd1 vccd1 ring_osc_counter_out[6] sky130_fd_sc_hd__dfrtp_4
XFILLER_9_108 vssd1 vssd1 vccd1 vccd1 sky130_fd_sc_hd__decap_4
X_273_ _273_/A _273_/B vssd1 vssd1 vccd1 vccd1 _273_/Y sky130_fd_sc_hd__nand2_1
XFILLER_5_111 vssd1 vssd1 vccd1 vccd1 sky130_fd_sc_hd__fill_1
XFILLER_5_122 vssd1 vssd1 vccd1 vccd1 sky130_fd_sc_hd__fill_1
XFILLER_2_136 vssd1 vssd1 vccd1 vccd1 sky130_fd_sc_hd__decap_4
X_256_ _254_/X _256_/A1 _269_/S vssd1 vssd1 vccd1 vccd1 _257_/A sky130_fd_sc_hd__mux2_1
X_187_ _193_/B _188_/B _188_/C vssd1 vssd1 vccd1 vccd1 _189_/A sky130_fd_sc_hd__a21oi_1
XFILLER_18_57 vssd1 vssd1 vccd1 vccd1 sky130_fd_sc_hd__decap_6
XFILLER_18_13 vssd1 vssd1 vccd1 vccd1 sky130_fd_sc_hd__decap_4
X_239_ _239_/A vssd1 vssd1 vccd1 vccd1 _246_/A sky130_fd_sc_hd__buf_2
Xinverters\[1\]._0_ inverters\[1\]._0_/A vssd1 vssd1 vccd1 vccd1 inverters\[2\]._0_/A
+ sky130_fd_sc_hd__inv_2
Xinverters\[19\]._0_ inverters\[19\]._0_/A vssd1 vssd1 vccd1 vccd1 inverters\[20\]._0_/A
+ sky130_fd_sc_hd__inv_2
XFILLER_19_110 vssd1 vssd1 vccd1 vccd1 sky130_fd_sc_hd__fill_2
XFILLER_25_113 vssd1 vssd1 vccd1 vccd1 sky130_fd_sc_hd__decap_4
Xtristate_ring_inputs\[7\]._0_ _153_/Y input24/X vssd1 vssd1 vccd1 vccd1 _173_/B sky130_fd_sc_hd__ebufn_2
XTAP_116 vssd1 vccd1 sky130_fd_sc_hd__tapvpwrvgnd_1
XFILLER_21_90 vssd1 vssd1 vccd1 vccd1 sky130_fd_sc_hd__decap_12
XTAP_105 vssd1 vccd1 sky130_fd_sc_hd__tapvpwrvgnd_1
XFILLER_16_124 vssd1 vssd1 vccd1 vccd1 sky130_fd_sc_hd__decap_4
XFILLER_26_13 vssd1 vssd1 vccd1 vccd1 sky130_fd_sc_hd__decap_4
XFILLER_13_149 vssd1 vssd1 vccd1 vccd1 sky130_fd_sc_hd__decap_8
XFILLER_8_153 vssd1 vssd1 vccd1 vccd1 sky130_fd_sc_hd__decap_4
X_272_ _280_/Q _272_/B vssd1 vssd1 vccd1 vccd1 _273_/B sky130_fd_sc_hd__nand2_1
XFILLER_12_15 vssd1 vssd1 vccd1 vccd1 sky130_fd_sc_hd__fill_2
XFILLER_23_47 vssd1 vssd1 vccd1 vccd1 sky130_fd_sc_hd__decap_8
XFILLER_2_104 vssd1 vssd1 vccd1 vccd1 sky130_fd_sc_hd__decap_4
X_255_ _258_/A vssd1 vssd1 vccd1 vccd1 _269_/S sky130_fd_sc_hd__clkbuf_2
XFILLER_3_6 vssd1 vssd1 vccd1 vccd1 sky130_fd_sc_hd__decap_4
X_186_ _186_/A _186_/B vssd1 vssd1 vccd1 vccd1 _188_/C sky130_fd_sc_hd__nand2_1
XFILLER_9_38 vssd1 vssd1 vccd1 vccd1 sky130_fd_sc_hd__decap_4
X_238_ _238_/A _238_/B vssd1 vssd1 vccd1 vccd1 _287_/D sky130_fd_sc_hd__nor2_1
X_169_ _169_/A _181_/B vssd1 vssd1 vccd1 vccd1 _169_/X sky130_fd_sc_hd__or2_1
XFILLER_1_50 vssd1 vssd1 vccd1 vccd1 sky130_fd_sc_hd__decap_6
XFILLER_19_90 vssd1 vssd1 vccd1 vccd1 sky130_fd_sc_hd__fill_2
XFILLER_6_17 vssd1 vssd1 vccd1 vccd1 sky130_fd_sc_hd__decap_8
XFILLER_10_92 vssd1 vssd1 vccd1 vccd1 sky130_fd_sc_hd__decap_8
XFILLER_25_103 vssd1 vssd1 vccd1 vccd1 sky130_fd_sc_hd__decap_8
XFILLER_16_136 vssd1 vssd1 vccd1 vccd1 sky130_fd_sc_hd__decap_4
XTAP_117 vssd1 vccd1 sky130_fd_sc_hd__tapvpwrvgnd_1
Xinverters\[0\]._0_ _154_/X vssd1 vssd1 vccd1 vccd1 inverters\[1\]._0_/A sky130_fd_sc_hd__inv_2
XTAP_106 vssd1 vccd1 sky130_fd_sc_hd__tapvpwrvgnd_1
XPHY_0 vssd1 vssd1 vccd1 vccd1 sky130_fd_sc_hd__decap_3
Xinverters\[18\]._0_ inverters\[18\]._0_/A vssd1 vssd1 vccd1 vccd1 inverters\[19\]._0_/A
+ sky130_fd_sc_hd__inv_2
XFILLER_7_60 vssd1 vssd1 vccd1 vccd1 sky130_fd_sc_hd__decap_12
XFILLER_7_82 vssd1 vssd1 vccd1 vccd1 sky130_fd_sc_hd__decap_8
XFILLER_21_150 vssd1 vssd1 vccd1 vccd1 sky130_fd_sc_hd__decap_6
XFILLER_13_106 vssd1 vssd1 vccd1 vccd1 sky130_fd_sc_hd__decap_6
Xtristate_ring_inputs\[6\]._0_ _153_/Y input23/X vssd1 vssd1 vccd1 vccd1 _171_/B sky130_fd_sc_hd__ebufn_2
XFILLER_8_132 vssd1 vssd1 vccd1 vccd1 sky130_fd_sc_hd__decap_8
X_271_ _271_/A vssd1 vssd1 vccd1 vccd1 _281_/D sky130_fd_sc_hd__clkbuf_1
XFILLER_4_50 vssd1 vssd1 vccd1 vccd1 sky130_fd_sc_hd__decap_4
XFILLER_4_72 vssd1 vssd1 vccd1 vccd1 sky130_fd_sc_hd__decap_4
XFILLER_4_83 vssd1 vssd1 vccd1 vccd1 sky130_fd_sc_hd__fill_1
X_254_ _251_/Y _253_/X _283_/Q vssd1 vssd1 vccd1 vccd1 _254_/X sky130_fd_sc_hd__o21a_1
X_185_ _185_/A _185_/B vssd1 vssd1 vccd1 vccd1 _186_/B sky130_fd_sc_hd__nand2_1
X_237_ _247_/B _224_/C ring_osc_counter_out[3] vssd1 vssd1 vccd1 vccd1 _238_/B sky130_fd_sc_hd__a21oi_1
XFILLER_24_80 vssd1 vssd1 vccd1 vccd1 sky130_fd_sc_hd__decap_4
X_168_ _168_/A _168_/B vssd1 vssd1 vccd1 vccd1 _181_/B sky130_fd_sc_hd__nand2_1
XFILLER_1_95 vssd1 vssd1 vccd1 vccd1 sky130_fd_sc_hd__decap_4
XFILLER_1_62 vssd1 vssd1 vccd1 vccd1 sky130_fd_sc_hd__decap_4
XFILLER_13_9 vssd1 vssd1 vccd1 vccd1 sky130_fd_sc_hd__fill_1
XFILLER_6_29 vssd1 vssd1 vccd1 vccd1 sky130_fd_sc_hd__decap_12
Xtristate_sum_outputs\[7\]._0_ _300_/A input54/X vssd1 vssd1 vccd1 vccd1 ring_osc_out
+ sky130_fd_sc_hd__ebufn_8
XTAP_118 vssd1 vccd1 sky130_fd_sc_hd__tapvpwrvgnd_1
XFILLER_22_129 vssd1 vssd1 vccd1 vccd1 sky130_fd_sc_hd__decap_4
XTAP_107 vssd1 vccd1 sky130_fd_sc_hd__tapvpwrvgnd_1
XPHY_1 vssd1 vssd1 vccd1 vccd1 sky130_fd_sc_hd__decap_3
XFILLER_13_118 vssd1 vssd1 vccd1 vccd1 sky130_fd_sc_hd__decap_4
XFILLER_8_144 vssd1 vssd1 vccd1 vccd1 sky130_fd_sc_hd__decap_6
X_270_ _269_/X _281_/Q _275_/S vssd1 vssd1 vccd1 vccd1 _271_/A sky130_fd_sc_hd__mux2_1
Xinverters\[17\]._0_ inverters\[17\]._0_/A vssd1 vssd1 vccd1 vccd1 inverters\[18\]._0_/A
+ sky130_fd_sc_hd__inv_2
Xtristate_ring_inputs\[5\]._0_ _153_/Y input22/X vssd1 vssd1 vccd1 vccd1 _167_/B sky130_fd_sc_hd__ebufn_2
X_253_ _282_/Q _272_/B _264_/B vssd1 vssd1 vccd1 vccd1 _253_/X sky130_fd_sc_hd__or3_1
XFILLER_13_82 vssd1 vssd1 vccd1 vccd1 sky130_fd_sc_hd__decap_4
X_184_ _155_/X _183_/C _182_/A _183_/X vssd1 vssd1 vccd1 vccd1 _296_/A sky130_fd_sc_hd__o22a_1
XFILLER_18_27 vssd1 vssd1 vccd1 vccd1 sky130_fd_sc_hd__fill_1
X_236_ _236_/A vssd1 vssd1 vccd1 vccd1 _236_/Y sky130_fd_sc_hd__inv_2
X_167_ _167_/A _167_/B vssd1 vssd1 vccd1 vccd1 _178_/B sky130_fd_sc_hd__nand2_1
XFILLER_19_113 vssd1 vssd1 vccd1 vccd1 sky130_fd_sc_hd__decap_12
XFILLER_19_102 vssd1 vssd1 vccd1 vccd1 sky130_fd_sc_hd__decap_8
XFILLER_10_50 vssd1 vssd1 vccd1 vccd1 sky130_fd_sc_hd__decap_4
XFILLER_10_72 vssd1 vssd1 vccd1 vccd1 sky130_fd_sc_hd__decap_4
XFILLER_10_83 vssd1 vssd1 vccd1 vccd1 sky130_fd_sc_hd__fill_1
XFILLER_19_135 vssd1 vssd1 vccd1 vccd1 sky130_fd_sc_hd__decap_6
XFILLER_19_70 vssd1 vssd1 vccd1 vccd1 sky130_fd_sc_hd__decap_12
X_219_ _281_/Q _280_/Q vssd1 vssd1 vccd1 vccd1 _264_/B sky130_fd_sc_hd__or2_1
XFILLER_16_116 vssd1 vssd1 vccd1 vccd1 sky130_fd_sc_hd__decap_4
XFILLER_16_105 vssd1 vssd1 vccd1 vccd1 sky130_fd_sc_hd__decap_4
XTAP_119 vssd1 vccd1 sky130_fd_sc_hd__tapvpwrvgnd_1
XFILLER_21_71 vssd1 vssd1 vccd1 vccd1 sky130_fd_sc_hd__decap_4
XTAP_108 vssd1 vccd1 sky130_fd_sc_hd__tapvpwrvgnd_1
Xclkbuf_0_clk clk vssd1 vssd1 vccd1 vccd1 clkbuf_0_clk/X sky130_fd_sc_hd__clkbuf_16
XPHY_2 vssd1 vssd1 vccd1 vccd1 sky130_fd_sc_hd__decap_3
XFILLER_26_27 vssd1 vssd1 vccd1 vccd1 sky130_fd_sc_hd__fill_1
XFILLER_7_51 vssd1 vssd1 vccd1 vccd1 sky130_fd_sc_hd__decap_4
XFILLER_7_95 vssd1 vssd1 vccd1 vccd1 sky130_fd_sc_hd__decap_4
XFILLER_12_141 vssd1 vssd1 vccd1 vccd1 sky130_fd_sc_hd__decap_3
Xtristate_sum_outputs\[6\]._0_ _299_/A input53/X vssd1 vssd1 vccd1 vccd1 ring_osc_out
+ sky130_fd_sc_hd__ebufn_8
XFILLER_5_126 vssd1 vssd1 vccd1 vccd1 sky130_fd_sc_hd__decap_4
XFILLER_13_50 vssd1 vssd1 vccd1 vccd1 sky130_fd_sc_hd__decap_6
X_252_ _252_/A vssd1 vssd1 vccd1 vccd1 _272_/B sky130_fd_sc_hd__dlymetal6s2s_1
X_183_ _183_/A _183_/B _183_/C vssd1 vssd1 vccd1 vccd1 _183_/X sky130_fd_sc_hd__and3_1
X_235_ _235_/A _235_/B vssd1 vssd1 vccd1 vccd1 _288_/D sky130_fd_sc_hd__nor2_1
XFILLER_1_6 vssd1 vssd1 vccd1 vccd1 sky130_fd_sc_hd__decap_4
Xinverters\[16\]._0_ inverters\[16\]._0_/A vssd1 vssd1 vccd1 vccd1 inverters\[17\]._0_/A
+ sky130_fd_sc_hd__inv_2
XFILLER_1_42 vssd1 vssd1 vccd1 vccd1 sky130_fd_sc_hd__decap_4
X_166_ _169_/A _166_/B vssd1 vssd1 vccd1 vccd1 _166_/X sky130_fd_sc_hd__or2_1
Xtristate_ring_inputs\[4\]._0_ _153_/Y input21/X vssd1 vssd1 vccd1 vccd1 _168_/B sky130_fd_sc_hd__ebufn_2
XFILLER_10_40 vssd1 vssd1 vccd1 vccd1 sky130_fd_sc_hd__decap_4
XFILLER_19_125 vssd1 vssd1 vccd1 vccd1 sky130_fd_sc_hd__decap_6
XFILLER_19_82 vssd1 vssd1 vccd1 vccd1 sky130_fd_sc_hd__decap_8
X_149_ _148_/X _149_/A1 _269_/S vssd1 vssd1 vccd1 vccd1 _150_/A sky130_fd_sc_hd__mux2_1
X_218_ _279_/Q _278_/Q _277_/Q _276_/Q vssd1 vssd1 vccd1 vccd1 _252_/A sky130_fd_sc_hd__or4_1
Xbypass1._0_ _153_/Y input33/X vssd1 vssd1 vccd1 vccd1 bypass2._0_/A sky130_fd_sc_hd__ebufn_1
XTAP_109 vssd1 vccd1 sky130_fd_sc_hd__tapvpwrvgnd_1
XFILLER_16_128 vssd1 vssd1 vccd1 vccd1 sky130_fd_sc_hd__fill_1
XPHY_3 vssd1 vssd1 vccd1 vccd1 sky130_fd_sc_hd__decap_3
XFILLER_5_105 vssd1 vssd1 vccd1 vccd1 sky130_fd_sc_hd__decap_6
XFILLER_5_116 vssd1 vssd1 vccd1 vccd1 sky130_fd_sc_hd__decap_6
Xtristate_sum_outputs\[5\]._0_ _298_/A input52/X vssd1 vssd1 vccd1 vccd1 ring_osc_out
+ sky130_fd_sc_hd__ebufn_8
XFILLER_4_97 vssd1 vssd1 vccd1 vccd1 sky130_fd_sc_hd__decap_4
X_251_ _259_/A vssd1 vssd1 vccd1 vccd1 _251_/Y sky130_fd_sc_hd__inv_2
X_182_ _182_/A _182_/B vssd1 vssd1 vccd1 vccd1 _297_/A sky130_fd_sc_hd__xnor2_2
XFILLER_24_72 vssd1 vssd1 vccd1 vccd1 sky130_fd_sc_hd__decap_4
X_234_ ring_osc_counter_out[4] _238_/A vssd1 vssd1 vccd1 vccd1 _235_/B sky130_fd_sc_hd__nor2_1
X_165_ _168_/A _168_/B vssd1 vssd1 vccd1 vccd1 _166_/B sky130_fd_sc_hd__nor2_1
XFILLER_1_32 vssd1 vssd1 vccd1 vccd1 sky130_fd_sc_hd__decap_4
XFILLER_1_10 vssd1 vssd1 vccd1 vccd1 sky130_fd_sc_hd__fill_1
X_148_ _276_/Q _260_/B vssd1 vssd1 vccd1 vccd1 _148_/X sky130_fd_sc_hd__xor2_1
X_217_ _236_/A vssd1 vssd1 vccd1 vccd1 _217_/Y sky130_fd_sc_hd__inv_2
XFILLER_10_85 vssd1 vssd1 vccd1 vccd1 sky130_fd_sc_hd__decap_4
Xinverters\[15\]._0_ inverters\[15\]._0_/A vssd1 vssd1 vccd1 vccd1 inverters\[16\]._0_/A
+ sky130_fd_sc_hd__inv_2
XFILLER_21_62 vssd1 vssd1 vccd1 vccd1 sky130_fd_sc_hd__decap_6
XFILLER_15_151 vssd1 vssd1 vccd1 vccd1 sky130_fd_sc_hd__decap_6
XPHY_4 vssd1 vssd1 vccd1 vccd1 sky130_fd_sc_hd__decap_3
Xtristate_ring_inputs\[3\]._0_ _153_/Y input20/X vssd1 vssd1 vccd1 vccd1 _183_/B sky130_fd_sc_hd__ebufn_1
XFILLER_7_42 vssd1 vssd1 vccd1 vccd1 sky130_fd_sc_hd__decap_6
XFILLER_7_75 vssd1 vssd1 vccd1 vccd1 sky130_fd_sc_hd__decap_4
XFILLER_12_121 vssd1 vssd1 vccd1 vccd1 sky130_fd_sc_hd__decap_6
XFILLER_23_19 vssd1 vssd1 vccd1 vccd1 sky130_fd_sc_hd__decap_4
XFILLER_4_150 vssd1 vssd1 vccd1 vccd1 sky130_fd_sc_hd__decap_6
X_250_ _250_/A vssd1 vssd1 vccd1 vccd1 _284_/D sky130_fd_sc_hd__clkbuf_1
XFILLER_13_63 vssd1 vssd1 vccd1 vccd1 sky130_fd_sc_hd__fill_1
X_181_ _166_/B _181_/B vssd1 vssd1 vccd1 vccd1 _182_/B sky130_fd_sc_hd__and2b_1
XFILLER_1_153 vssd1 vssd1 vccd1 vccd1 sky130_fd_sc_hd__decap_4
X_233_ _236_/A vssd1 vssd1 vccd1 vccd1 _233_/Y sky130_fd_sc_hd__inv_2
X_164_ _167_/A _167_/B vssd1 vssd1 vccd1 vccd1 _169_/A sky130_fd_sc_hd__nor2_1
Xtristate_sum_outputs\[4\]._0_ _297_/A input51/X vssd1 vssd1 vccd1 vccd1 ring_osc_out
+ sky130_fd_sc_hd__ebufn_8
XFILLER_1_88 vssd1 vssd1 vccd1 vccd1 sky130_fd_sc_hd__decap_4
XFILLER_1_66 vssd1 vssd1 vccd1 vccd1 sky130_fd_sc_hd__fill_1
XFILLER_19_95 vssd1 vssd1 vccd1 vccd1 sky130_fd_sc_hd__decap_4
X_216_ _239_/A vssd1 vssd1 vccd1 vccd1 _236_/A sky130_fd_sc_hd__buf_2
X_147_ _147_/A vssd1 vssd1 vccd1 vccd1 _277_/D sky130_fd_sc_hd__clkbuf_1
XFILLER_24_141 vssd1 vssd1 vccd1 vccd1 sky130_fd_sc_hd__fill_2
XFILLER_21_52 vssd1 vssd1 vccd1 vccd1 sky130_fd_sc_hd__decap_4
XFILLER_15_130 vssd1 vssd1 vccd1 vccd1 sky130_fd_sc_hd__decap_4
XPHY_5 vssd1 vssd1 vccd1 vccd1 sky130_fd_sc_hd__decap_3
XFILLER_21_122 vssd1 vssd1 vccd1 vccd1 sky130_fd_sc_hd__decap_4
XFILLER_12_100 vssd1 vssd1 vccd1 vccd1 sky130_fd_sc_hd__decap_4
Xinverters\[14\]._0_ inverters\[14\]._0_/A vssd1 vssd1 vccd1 vccd1 inverters\[15\]._0_/A
+ sky130_fd_sc_hd__inv_2
Xtristate_ring_inputs\[2\]._0_ _153_/Y input19/X vssd1 vssd1 vccd1 vccd1 _185_/B sky130_fd_sc_hd__ebufn_2
XFILLER_13_31 vssd1 vssd1 vccd1 vccd1 sky130_fd_sc_hd__decap_4
X_180_ _180_/A _180_/B vssd1 vssd1 vccd1 vccd1 _298_/A sky130_fd_sc_hd__xnor2_2
XFILLER_1_121 vssd1 vssd1 vccd1 vccd1 sky130_fd_sc_hd__decap_4
XFILLER_1_110 vssd1 vssd1 vccd1 vccd1 sky130_fd_sc_hd__fill_2
XFILLER_24_52 vssd1 vssd1 vccd1 vccd1 sky130_fd_sc_hd__decap_4
X_232_ ring_osc_counter_out[5] _235_/A _229_/B vssd1 vssd1 vccd1 vccd1 _289_/D sky130_fd_sc_hd__o21a_1
X_163_ _171_/A _171_/B vssd1 vssd1 vccd1 vccd1 _163_/Y sky130_fd_sc_hd__nor2_1
XFILLER_19_41 vssd1 vssd1 vccd1 vccd1 sky130_fd_sc_hd__decap_12
X_215_ _239_/A vssd1 vssd1 vccd1 vccd1 _215_/Y sky130_fd_sc_hd__inv_2
X_146_ _145_/X _277_/Q _261_/A vssd1 vssd1 vccd1 vccd1 _147_/A sky130_fd_sc_hd__mux2_1
XFILLER_24_153 vssd1 vssd1 vccd1 vccd1 sky130_fd_sc_hd__decap_4
Xtristate_sum_outputs\[3\]._0_ _296_/A input50/X vssd1 vssd1 vccd1 vccd1 ring_osc_out
+ sky130_fd_sc_hd__ebufn_8
XFILLER_21_20 vssd1 vssd1 vccd1 vccd1 sky130_fd_sc_hd__decap_4
XPHY_6 vssd1 vssd1 vccd1 vccd1 sky130_fd_sc_hd__decap_3
XFILLER_7_55 vssd1 vssd1 vccd1 vccd1 sky130_fd_sc_hd__fill_1
XFILLER_21_156 vssd1 vssd1 vccd1 vccd1 sky130_fd_sc_hd__fill_1
XFILLER_16_20 vssd1 vssd1 vccd1 vccd1 sky130_fd_sc_hd__decap_8
XFILLER_12_156 vssd1 vssd1 vccd1 vccd1 sky130_fd_sc_hd__fill_1
Xinverters\[13\]._0_ inverters\[13\]._0_/A vssd1 vssd1 vccd1 vccd1 inverters\[14\]._0_/A
+ sky130_fd_sc_hd__inv_2
Xtristate_ext_inputs\[7\]._0_ input8/X input16/X vssd1 vssd1 vccd1 vccd1 _173_/B sky130_fd_sc_hd__ebufn_2
Xtristate_ring_inputs\[1\]._0_ _153_/Y input18/X vssd1 vssd1 vccd1 vccd1 _192_/B sky130_fd_sc_hd__ebufn_2
X_231_ ring_osc_counter_out[4] _238_/A vssd1 vssd1 vccd1 vccd1 _235_/A sky130_fd_sc_hd__and2_1
X_300_ _300_/A vssd1 vssd1 vccd1 vccd1 sum_out[7] sky130_fd_sc_hd__buf_2
X_162_ _155_/X _183_/C _161_/X vssd1 vssd1 vccd1 vccd1 _182_/A sky130_fd_sc_hd__a21oi_4
XFILLER_1_57 vssd1 vssd1 vccd1 vccd1 sky130_fd_sc_hd__fill_2
XFILLER_19_53 vssd1 vssd1 vccd1 vccd1 sky130_fd_sc_hd__decap_3
XTAP_90 vssd1 vccd1 sky130_fd_sc_hd__tapvpwrvgnd_1
Xinput1 a_input[0] vssd1 vssd1 vccd1 vccd1 input1/X sky130_fd_sc_hd__clkbuf_1
XFILLER_10_33 vssd1 vssd1 vccd1 vccd1 sky130_fd_sc_hd__fill_1
XFILLER_25_6 vssd1 vssd1 vccd1 vccd1 sky130_fd_sc_hd__decap_6
XFILLER_18_151 vssd1 vssd1 vccd1 vccd1 sky130_fd_sc_hd__decap_6
X_214_ _292_/Q vssd1 vssd1 vccd1 vccd1 _214_/Y sky130_fd_sc_hd__inv_2
X_145_ _144_/Y _145_/A1 _274_/S vssd1 vssd1 vccd1 vccd1 _145_/X sky130_fd_sc_hd__mux2_1
XPHY_7 vssd1 vssd1 vccd1 vccd1 sky130_fd_sc_hd__decap_3
XFILLER_21_113 vssd1 vssd1 vccd1 vccd1 sky130_fd_sc_hd__decap_6
XFILLER_21_102 vssd1 vssd1 vccd1 vccd1 sky130_fd_sc_hd__decap_3
XFILLER_16_32 vssd1 vssd1 vccd1 vccd1 sky130_fd_sc_hd__decap_12
Xtristate_sum_outputs\[2\]._0_ _295_/A input49/X vssd1 vssd1 vccd1 vccd1 ring_osc_out
+ sky130_fd_sc_hd__ebufn_8
XFILLER_4_79 vssd1 vssd1 vccd1 vccd1 sky130_fd_sc_hd__decap_4
XFILLER_24_98 vssd1 vssd1 vccd1 vccd1 sky130_fd_sc_hd__decap_4
XFILLER_24_65 vssd1 vssd1 vccd1 vccd1 sky130_fd_sc_hd__decap_4
X_230_ _236_/A vssd1 vssd1 vccd1 vccd1 _230_/Y sky130_fd_sc_hd__inv_2
Xcontrol2._0_ control2._0_/A input34/X vssd1 vssd1 vccd1 vccd1 ring_osc_out sky130_fd_sc_hd__ebufn_8
X_161_ _183_/A _183_/B vssd1 vssd1 vccd1 vccd1 _161_/X sky130_fd_sc_hd__and2_1
XFILLER_1_36 vssd1 vssd1 vccd1 vccd1 sky130_fd_sc_hd__fill_1
XTAP_91 vssd1 vccd1 sky130_fd_sc_hd__tapvpwrvgnd_1
Xinput2 a_input[1] vssd1 vssd1 vccd1 vccd1 input2/X sky130_fd_sc_hd__clkbuf_1
Xinverters\[12\]._0_ inverters\[12\]._0_/A vssd1 vssd1 vccd1 vccd1 inverters\[13\]._0_/A
+ sky130_fd_sc_hd__inv_2
XTAP_80 vssd1 vccd1 sky130_fd_sc_hd__tapvpwrvgnd_1
XFILLER_10_67 vssd1 vssd1 vccd1 vccd1 sky130_fd_sc_hd__fill_2
Xtristate_ext_inputs\[6\]._0_ input7/X input15/X vssd1 vssd1 vccd1 vccd1 _171_/B sky130_fd_sc_hd__ebufn_2
X_213_ _292_/Q vssd1 vssd1 vccd1 vccd1 _213_/Y sky130_fd_sc_hd__clkinv_2
XFILLER_19_65 vssd1 vssd1 vccd1 vccd1 sky130_fd_sc_hd__fill_2
Xtristate_ring_inputs\[0\]._0_ _153_/Y input17/X vssd1 vssd1 vccd1 vccd1 _195_/B sky130_fd_sc_hd__ebufn_1
X_144_ _144_/A _144_/B vssd1 vssd1 vccd1 vccd1 _144_/Y sky130_fd_sc_hd__nand2_1
XFILLER_18_141 vssd1 vssd1 vccd1 vccd1 sky130_fd_sc_hd__fill_1
XFILLER_15_111 vssd1 vssd1 vccd1 vccd1 sky130_fd_sc_hd__fill_1
XPHY_8 vssd1 vssd1 vccd1 vccd1 sky130_fd_sc_hd__decap_3
XFILLER_16_44 vssd1 vssd1 vccd1 vccd1 sky130_fd_sc_hd__decap_4
XFILLER_12_136 vssd1 vssd1 vccd1 vccd1 sky130_fd_sc_hd__decap_4
XFILLER_7_140 vssd1 vssd1 vccd1 vccd1 sky130_fd_sc_hd__decap_8
XFILLER_13_67 vssd1 vssd1 vccd1 vccd1 sky130_fd_sc_hd__decap_12