* NGSPICE file created from instrumented_adder.ext - technology: sky130A

* Black-box entry subcircuit for sky130_fd_sc_hd__fill_1 abstract view
.subckt sky130_fd_sc_hd__fill_1 VGND VNB VPB VPWR
.ends

* Black-box entry subcircuit for sky130_fd_sc_hd__inv_2 abstract view
.subckt sky130_fd_sc_hd__inv_2 A VGND VNB VPB VPWR Y
.ends

* Black-box entry subcircuit for sky130_fd_sc_hd__decap_6 abstract view
.subckt sky130_fd_sc_hd__decap_6 VGND VNB VPB VPWR
.ends

* Black-box entry subcircuit for sky130_fd_sc_hd__decap_4 abstract view
.subckt sky130_fd_sc_hd__decap_4 VGND VNB VPB VPWR
.ends

* Black-box entry subcircuit for sky130_fd_sc_hd__a2bb2o_1 abstract view
.subckt sky130_fd_sc_hd__a2bb2o_1 A1_N A2_N B1 B2 VGND VNB VPB VPWR X
.ends

* Black-box entry subcircuit for sky130_fd_sc_hd__nand2_1 abstract view
.subckt sky130_fd_sc_hd__nand2_1 A B VGND VNB VPB VPWR Y
.ends

* Black-box entry subcircuit for sky130_fd_sc_hd__decap_12 abstract view
.subckt sky130_fd_sc_hd__decap_12 VGND VNB VPB VPWR
.ends

* Black-box entry subcircuit for sky130_fd_sc_hd__a21o_1 abstract view
.subckt sky130_fd_sc_hd__a21o_1 A1 A2 B1 VGND VNB VPB VPWR X
.ends

* Black-box entry subcircuit for sky130_fd_sc_hd__decap_8 abstract view
.subckt sky130_fd_sc_hd__decap_8 VGND VNB VPB VPWR
.ends

* Black-box entry subcircuit for sky130_fd_sc_hd__decap_3 abstract view
.subckt sky130_fd_sc_hd__decap_3 VGND VNB VPB VPWR
.ends

* Black-box entry subcircuit for sky130_fd_sc_hd__o21bai_1 abstract view
.subckt sky130_fd_sc_hd__o21bai_1 A1 A2 B1_N VGND VNB VPB VPWR Y
.ends

* Black-box entry subcircuit for sky130_fd_sc_hd__xnor2_1 abstract view
.subckt sky130_fd_sc_hd__xnor2_1 A B VGND VNB VPB VPWR Y
.ends

* Black-box entry subcircuit for sky130_fd_sc_hd__fill_2 abstract view
.subckt sky130_fd_sc_hd__fill_2 VGND VNB VPB VPWR
.ends

* Black-box entry subcircuit for sky130_fd_sc_hd__a32o_1 abstract view
.subckt sky130_fd_sc_hd__a32o_1 A1 A2 A3 B1 B2 VGND VNB VPB VPWR X
.ends

* Black-box entry subcircuit for sky130_fd_sc_hd__clkbuf_1 abstract view
.subckt sky130_fd_sc_hd__clkbuf_1 A VGND VNB VPB VPWR X
.ends

* Black-box entry subcircuit for sky130_fd_sc_hd__and2_1 abstract view
.subckt sky130_fd_sc_hd__and2_1 A B VGND VNB VPB VPWR X
.ends

* Black-box entry subcircuit for sky130_fd_sc_hd__nor4_1 abstract view
.subckt sky130_fd_sc_hd__nor4_1 A B C D VGND VNB VPB VPWR Y
.ends

* Black-box entry subcircuit for sky130_fd_sc_hd__or2_1 abstract view
.subckt sky130_fd_sc_hd__or2_1 A B VGND VNB VPB VPWR X
.ends

* Black-box entry subcircuit for sky130_fd_sc_hd__nand2_4 abstract view
.subckt sky130_fd_sc_hd__nand2_4 A B VGND VNB VPB VPWR Y
.ends

* Black-box entry subcircuit for sky130_fd_sc_hd__buf_2 abstract view
.subckt sky130_fd_sc_hd__buf_2 A VGND VNB VPB VPWR X
.ends

* Black-box entry subcircuit for sky130_fd_sc_hd__nor2_1 abstract view
.subckt sky130_fd_sc_hd__nor2_1 A B VGND VNB VPB VPWR Y
.ends

* Black-box entry subcircuit for sky130_fd_sc_hd__and4b_1 abstract view
.subckt sky130_fd_sc_hd__and4b_1 A_N B C D VGND VNB VPB VPWR X
.ends

* Black-box entry subcircuit for sky130_fd_sc_hd__dfrtp_4 abstract view
.subckt sky130_fd_sc_hd__dfrtp_4 CLK D RESET_B VGND VNB VPB VPWR Q
.ends

* Black-box entry subcircuit for sky130_fd_sc_hd__clkbuf_16 abstract view
.subckt sky130_fd_sc_hd__clkbuf_16 A VGND VNB VPB VPWR X
.ends

* Black-box entry subcircuit for sky130_fd_sc_hd__a21oi_1 abstract view
.subckt sky130_fd_sc_hd__a21oi_1 A1 A2 B1 VGND VNB VPB VPWR Y
.ends

* Black-box entry subcircuit for sky130_fd_sc_hd__o221a_1 abstract view
.subckt sky130_fd_sc_hd__o221a_1 A1 A2 B1 B2 C1 VGND VNB VPB VPWR X
.ends

* Black-box entry subcircuit for sky130_fd_sc_hd__and3_1 abstract view
.subckt sky130_fd_sc_hd__and3_1 A B C VGND VNB VPB VPWR X
.ends

* Black-box entry subcircuit for sky130_fd_sc_hd__o21ba_1 abstract view
.subckt sky130_fd_sc_hd__o21ba_1 A1 A2 B1_N VGND VNB VPB VPWR X
.ends

* Black-box entry subcircuit for sky130_fd_sc_hd__xor2_1 abstract view
.subckt sky130_fd_sc_hd__xor2_1 A B VGND VNB VPB VPWR X
.ends

* Black-box entry subcircuit for sky130_fd_sc_hd__nor3b_1 abstract view
.subckt sky130_fd_sc_hd__nor3b_1 A B C_N VGND VNB VPB VPWR Y
.ends

* Black-box entry subcircuit for sky130_fd_sc_hd__and4_1 abstract view
.subckt sky130_fd_sc_hd__and4_1 A B C D VGND VNB VPB VPWR X
.ends

* Black-box entry subcircuit for sky130_fd_sc_hd__or3_1 abstract view
.subckt sky130_fd_sc_hd__or3_1 A B C VGND VNB VPB VPWR X
.ends

* Black-box entry subcircuit for sky130_fd_sc_hd__tapvpwrvgnd_1 abstract view
.subckt sky130_fd_sc_hd__tapvpwrvgnd_1 VGND VPWR
.ends

* Black-box entry subcircuit for sky130_fd_sc_hd__o22a_1 abstract view
.subckt sky130_fd_sc_hd__o22a_1 A1 A2 B1 B2 VGND VNB VPB VPWR X
.ends

* Black-box entry subcircuit for sky130_fd_sc_hd__o21ai_1 abstract view
.subckt sky130_fd_sc_hd__o21ai_1 A1 A2 B1 VGND VNB VPB VPWR Y
.ends

* Black-box entry subcircuit for sky130_fd_sc_hd__clkbuf_2 abstract view
.subckt sky130_fd_sc_hd__clkbuf_2 A VGND VNB VPB VPWR X
.ends

* Black-box entry subcircuit for sky130_fd_sc_hd__o31ai_1 abstract view
.subckt sky130_fd_sc_hd__o31ai_1 A1 A2 A3 B1 VGND VNB VPB VPWR Y
.ends

* Black-box entry subcircuit for sky130_fd_sc_hd__dlymetal6s2s_1 abstract view
.subckt sky130_fd_sc_hd__dlymetal6s2s_1 A VGND VNB VPB VPWR X
.ends

* Black-box entry subcircuit for sky130_fd_sc_hd__xor2_2 abstract view
.subckt sky130_fd_sc_hd__xor2_2 A B VGND VNB VPB VPWR X
.ends

* Black-box entry subcircuit for sky130_fd_sc_hd__or4_4 abstract view
.subckt sky130_fd_sc_hd__or4_4 A B C D VGND VNB VPB VPWR X
.ends

* Black-box entry subcircuit for sky130_fd_sc_hd__or4_2 abstract view
.subckt sky130_fd_sc_hd__or4_2 A B C D VGND VNB VPB VPWR X
.ends

* Black-box entry subcircuit for sky130_fd_sc_hd__clkinv_2 abstract view
.subckt sky130_fd_sc_hd__clkinv_2 A VGND VNB VPB VPWR Y
.ends

* Black-box entry subcircuit for sky130_fd_sc_hd__mux2_1 abstract view
.subckt sky130_fd_sc_hd__mux2_1 A0 A1 S VGND VNB VPB VPWR X
.ends

* Black-box entry subcircuit for sky130_fd_sc_hd__nand3b_1 abstract view
.subckt sky130_fd_sc_hd__nand3b_1 A_N B C VGND VNB VPB VPWR Y
.ends

* Black-box entry subcircuit for sky130_fd_sc_hd__o22ai_1 abstract view
.subckt sky130_fd_sc_hd__o22ai_1 A1 A2 B1 B2 VGND VNB VPB VPWR Y
.ends

* Black-box entry subcircuit for sky130_fd_sc_hd__o22ai_2 abstract view
.subckt sky130_fd_sc_hd__o22ai_2 A1 A2 B1 B2 VGND VNB VPB VPWR Y
.ends

* Black-box entry subcircuit for sky130_fd_sc_hd__or4_1 abstract view
.subckt sky130_fd_sc_hd__or4_1 A B C D VGND VNB VPB VPWR X
.ends

.subckt instrumented_adder b[0] b[1] b[2] b[3] b[4] b[5] b[6] b[7] bypass chain clk
+ counter_end[0] counter_end[1] counter_end[2] counter_end[3] counter_end[4] counter_end[5]
+ counter_end[6] counter_end[7] counter_out[0] counter_out[1] counter_out[2] counter_out[3]
+ counter_out[4] counter_out[5] counter_out[6] counter_out[7] extra_inverter reset
+ ring_osc_counter_out[0] ring_osc_counter_out[1] ring_osc_counter_out[2] ring_osc_counter_out[3]
+ ring_osc_counter_out[4] ring_osc_counter_out[5] ring_osc_counter_out[6] ring_osc_counter_out[7]
+ run sum_out[0] sum_out[1] sum_out[2] sum_out[3] sum_out[4] sum_out[5] sum_out[6]
+ sum_out[7] time_count_overflow vccd1 vssd1
XFILLER_13_111 vssd1 vssd1 vccd1 vccd1 sky130_fd_sc_hd__fill_1
Xbuffers\[6\]._0_ buffers\[6\]._0_/A vssd1 vssd1 vccd1 vccd1 buffers\[7\]._0_/A sky130_fd_sc_hd__inv_2
XFILLER_12_21 vssd1 vssd1 vccd1 vccd1 sky130_fd_sc_hd__decap_6
XFILLER_12_43 vssd1 vssd1 vccd1 vccd1 sky130_fd_sc_hd__decap_4
X_131_ _143_/A _122_/Y _167_/B _130_/Y vssd1 vssd1 vccd1 vccd1 _132_/D sky130_fd_sc_hd__a2bb2o_1
X_200_ _200_/A _200_/B vssd1 vssd1 vccd1 vccd1 _200_/Y sky130_fd_sc_hd__nand2_1
XFILLER_0_57 vssd1 vssd1 vccd1 vccd1 sky130_fd_sc_hd__decap_12
X_114_ _105_/B _106_/Y counter_out[6] vssd1 vssd1 vccd1 vccd1 _118_/C sky130_fd_sc_hd__a21o_1
XFILLER_6_56 vssd1 vssd1 vccd1 vccd1 sky130_fd_sc_hd__fill_1
XFILLER_6_78 vssd1 vssd1 vccd1 vccd1 sky130_fd_sc_hd__decap_6
XFILLER_6_89 vssd1 vssd1 vccd1 vccd1 sky130_fd_sc_hd__fill_1
XFILLER_13_3 vssd1 vssd1 vccd1 vccd1 sky130_fd_sc_hd__decap_12
XFILLER_15_32 vssd1 vssd1 vccd1 vccd1 sky130_fd_sc_hd__decap_4
XFILLER_15_76 vssd1 vssd1 vccd1 vccd1 sky130_fd_sc_hd__decap_8
XFILLER_3_46 vssd1 vssd1 vccd1 vccd1 sky130_fd_sc_hd__decap_3
XFILLER_9_116 vssd1 vssd1 vccd1 vccd1 sky130_fd_sc_hd__decap_12
XFILLER_6_119 vssd1 vssd1 vccd1 vccd1 sky130_fd_sc_hd__fill_1
XFILLER_12_55 vssd1 vssd1 vccd1 vccd1 sky130_fd_sc_hd__decap_4
XFILLER_5_130 vssd1 vssd1 vccd1 vccd1 sky130_fd_sc_hd__decap_4
X_130_ _164_/B _128_/X _164_/A vssd1 vssd1 vccd1 vccd1 _130_/Y sky130_fd_sc_hd__o21bai_1
XFILLER_0_69 vssd1 vssd1 vccd1 vccd1 sky130_fd_sc_hd__decap_12
Xbuffers\[5\]._0_ buffers\[5\]._0_/A vssd1 vssd1 vccd1 vccd1 buffers\[6\]._0_/A sky130_fd_sc_hd__inv_2
XFILLER_18_65 vssd1 vssd1 vccd1 vccd1 sky130_fd_sc_hd__decap_8
X_113_ _108_/X _109_/Y counter_out[5] vssd1 vssd1 vccd1 vccd1 _118_/B sky130_fd_sc_hd__a21o_1
XFILLER_6_13 vssd1 vssd1 vccd1 vccd1 sky130_fd_sc_hd__decap_12
XFILLER_16_121 vssd1 vssd1 vccd1 vccd1 sky130_fd_sc_hd__decap_12
XFILLER_9_106 vssd1 vssd1 vccd1 vccd1 sky130_fd_sc_hd__decap_6
XFILLER_9_128 vssd1 vssd1 vccd1 vccd1 sky130_fd_sc_hd__decap_6
XFILLER_13_124 vssd1 vssd1 vccd1 vccd1 sky130_fd_sc_hd__decap_8
XFILLER_3_69 vssd1 vssd1 vccd1 vccd1 sky130_fd_sc_hd__decap_4
XFILLER_3_3 vssd1 vssd1 vccd1 vccd1 sky130_fd_sc_hd__decap_12
XFILLER_0_15 vssd1 vssd1 vccd1 vccd1 sky130_fd_sc_hd__decap_12
X_189_ ring_osc_counter_out[7] _189_/B vssd1 vssd1 vccd1 vccd1 _217_/D sky130_fd_sc_hd__xnor2_1
XFILLER_9_57 vssd1 vssd1 vccd1 vccd1 sky130_fd_sc_hd__decap_4
XFILLER_18_99 vssd1 vssd1 vccd1 vccd1 sky130_fd_sc_hd__fill_2
XFILLER_18_55 vssd1 vssd1 vccd1 vccd1 sky130_fd_sc_hd__decap_4
X_112_ counter_out[5] _108_/X _109_/Y _111_/Y counter_out[4] vssd1 vssd1 vccd1 vccd1
+ _115_/A sky130_fd_sc_hd__a32o_1
Xbuffers\[4\]._0_ buffers\[4\]._0_/A vssd1 vssd1 vccd1 vccd1 buffers\[5\]._0_/A sky130_fd_sc_hd__inv_2
XFILLER_6_25 vssd1 vssd1 vccd1 vccd1 sky130_fd_sc_hd__decap_3
XFILLER_16_133 vssd1 vssd1 vccd1 vccd1 sky130_fd_sc_hd__fill_1
XFILLER_15_23 vssd1 vssd1 vccd1 vccd1 sky130_fd_sc_hd__decap_4
XFILLER_13_103 vssd1 vssd1 vccd1 vccd1 sky130_fd_sc_hd__decap_8
XFILLER_10_128 vssd1 vssd1 vccd1 vccd1 sky130_fd_sc_hd__decap_6
XFILLER_4_80 vssd1 vssd1 vccd1 vccd1 sky130_fd_sc_hd__decap_4
XFILLER_0_27 vssd1 vssd1 vccd1 vccd1 sky130_fd_sc_hd__fill_1
X_188_ _188_/A vssd1 vssd1 vccd1 vccd1 _216_/D sky130_fd_sc_hd__clkbuf_1
X_111_ _111_/A _111_/B vssd1 vssd1 vccd1 vccd1 _111_/Y sky130_fd_sc_hd__xnor2_1
XFILLER_20_57 vssd1 vssd1 vccd1 vccd1 sky130_fd_sc_hd__decap_12
XFILLER_20_46 vssd1 vssd1 vccd1 vccd1 sky130_fd_sc_hd__decap_4
XFILLER_6_37 vssd1 vssd1 vccd1 vccd1 sky130_fd_sc_hd__decap_4
XFILLER_20_7 vssd1 vssd1 vccd1 vccd1 sky130_fd_sc_hd__fill_1
XFILLER_11_3 vssd1 vssd1 vccd1 vccd1 sky130_fd_sc_hd__decap_12
XFILLER_22_104 vssd1 vssd1 vccd1 vccd1 sky130_fd_sc_hd__decap_8
Xbuffers\[3\]._0_ buffers\[3\]._0_/A vssd1 vssd1 vccd1 vccd1 buffers\[4\]._0_/A sky130_fd_sc_hd__inv_2
XFILLER_3_38 vssd1 vssd1 vccd1 vccd1 sky130_fd_sc_hd__decap_8
XFILLER_5_100 vssd1 vssd1 vccd1 vccd1 sky130_fd_sc_hd__decap_4
XFILLER_12_47 vssd1 vssd1 vccd1 vccd1 sky130_fd_sc_hd__fill_1
XFILLER_2_103 vssd1 vssd1 vccd1 vccd1 sky130_fd_sc_hd__decap_4
X_187_ _189_/B _187_/B vssd1 vssd1 vccd1 vccd1 _188_/A sky130_fd_sc_hd__and2_1
XFILLER_18_24 vssd1 vssd1 vccd1 vccd1 sky130_fd_sc_hd__decap_4
X_110_ _121_/A _110_/B _120_/A _126_/B vssd1 vssd1 vccd1 vccd1 _111_/B sky130_fd_sc_hd__nor4_1
XFILLER_20_69 vssd1 vssd1 vccd1 vccd1 sky130_fd_sc_hd__decap_4
XFILLER_20_36 vssd1 vssd1 vccd1 vccd1 sky130_fd_sc_hd__decap_4
XFILLER_20_25 vssd1 vssd1 vccd1 vccd1 sky130_fd_sc_hd__decap_3
XFILLER_15_69 vssd1 vssd1 vccd1 vccd1 sky130_fd_sc_hd__decap_3
XFILLER_22_116 vssd1 vssd1 vccd1 vccd1 sky130_fd_sc_hd__decap_4
XFILLER_12_37 vssd1 vssd1 vccd1 vccd1 sky130_fd_sc_hd__decap_3
XFILLER_5_123 vssd1 vssd1 vccd1 vccd1 sky130_fd_sc_hd__decap_4
Xbuffers\[2\]._0_ buffers\[2\]._0_/A vssd1 vssd1 vccd1 vccd1 buffers\[3\]._0_/A sky130_fd_sc_hd__inv_2
X_186_ ring_osc_counter_out[6] _186_/B vssd1 vssd1 vccd1 vccd1 _187_/B sky130_fd_sc_hd__or2_1
XFILLER_0_29 vssd1 vssd1 vccd1 vccd1 sky130_fd_sc_hd__decap_12
X_169_ _200_/A _200_/B vssd1 vssd1 vccd1 vccd1 chain sky130_fd_sc_hd__nand2_4
XFILLER_19_133 vssd1 vssd1 vccd1 vccd1 sky130_fd_sc_hd__fill_1
XFILLER_19_122 vssd1 vssd1 vccd1 vccd1 sky130_fd_sc_hd__fill_1
XFILLER_15_15 vssd1 vssd1 vccd1 vccd1 sky130_fd_sc_hd__fill_2
XFILLER_16_114 vssd1 vssd1 vccd1 vccd1 sky130_fd_sc_hd__decap_4
XPHY_0 vssd1 vssd1 vccd1 vccd1 sky130_fd_sc_hd__decap_3
XFILLER_13_117 vssd1 vssd1 vccd1 vccd1 sky130_fd_sc_hd__decap_4
XFILLER_8_110 vssd1 vssd1 vccd1 vccd1 sky130_fd_sc_hd__decap_4
XFILLER_12_27 vssd1 vssd1 vccd1 vccd1 sky130_fd_sc_hd__fill_1
XFILLER_5_113 vssd1 vssd1 vccd1 vccd1 sky130_fd_sc_hd__decap_6
X_185_ ring_osc_counter_out[6] _186_/B vssd1 vssd1 vccd1 vccd1 _189_/B sky130_fd_sc_hd__nand2_1
XFILLER_18_59 vssd1 vssd1 vccd1 vccd1 sky130_fd_sc_hd__fill_1
XFILLER_18_15 vssd1 vssd1 vccd1 vccd1 sky130_fd_sc_hd__decap_3
Xbuffers\[1\]._0_ buffers\[1\]._0_/A vssd1 vssd1 vccd1 vccd1 buffers\[2\]._0_/A sky130_fd_sc_hd__inv_2
X_168_ _168_/A vssd1 vssd1 vccd1 vccd1 time_count_overflow sky130_fd_sc_hd__buf_2
XFILLER_1_62 vssd1 vssd1 vccd1 vccd1 sky130_fd_sc_hd__decap_4
XFILLER_19_91 vssd1 vssd1 vccd1 vccd1 sky130_fd_sc_hd__decap_4
XFILLER_19_80 vssd1 vssd1 vccd1 vccd1 sky130_fd_sc_hd__decap_4
XFILLER_6_29 vssd1 vssd1 vccd1 vccd1 sky130_fd_sc_hd__decap_4
XPHY_1 vssd1 vssd1 vccd1 vccd1 sky130_fd_sc_hd__decap_3
XFILLER_7_72 vssd1 vssd1 vccd1 vccd1 sky130_fd_sc_hd__decap_4
XFILLER_8_133 vssd1 vssd1 vccd1 vccd1 sky130_fd_sc_hd__fill_1
X_184_ _186_/B _184_/B vssd1 vssd1 vccd1 vccd1 _215_/D sky130_fd_sc_hd__nor2_1
XFILLER_18_38 vssd1 vssd1 vccd1 vccd1 sky130_fd_sc_hd__decap_12
X_167_ _163_/X _167_/B _167_/C _167_/D vssd1 vssd1 vccd1 vccd1 _168_/A sky130_fd_sc_hd__and4b_1
XFILLER_20_17 vssd1 vssd1 vccd1 vccd1 sky130_fd_sc_hd__decap_8
XFILLER_1_52 vssd1 vssd1 vccd1 vccd1 sky130_fd_sc_hd__decap_4
XFILLER_10_83 vssd1 vssd1 vccd1 vccd1 sky130_fd_sc_hd__fill_1
X_219_ _221_/CLK _219_/D _202_/Y vssd1 vssd1 vccd1 vccd1 counter_out[1] sky130_fd_sc_hd__dfrtp_4
Xbuffers\[0\]._0_ _173_/Y vssd1 vssd1 vccd1 vccd1 buffers\[1\]._0_/A sky130_fd_sc_hd__inv_2
XFILLER_21_93 vssd1 vssd1 vccd1 vccd1 sky130_fd_sc_hd__decap_6
XPHY_2 vssd1 vssd1 vccd1 vccd1 sky130_fd_sc_hd__decap_3
Xclkbuf_0_clk clk vssd1 vssd1 vccd1 vccd1 clkbuf_0_clk/X sky130_fd_sc_hd__clkbuf_16
XFILLER_16_71 vssd1 vssd1 vccd1 vccd1 sky130_fd_sc_hd__decap_12
XFILLER_12_130 vssd1 vssd1 vccd1 vccd1 sky130_fd_sc_hd__decap_4
XFILLER_12_29 vssd1 vssd1 vccd1 vccd1 sky130_fd_sc_hd__decap_8
XFILLER_5_104 vssd1 vssd1 vccd1 vccd1 sky130_fd_sc_hd__fill_1
XFILLER_4_85 vssd1 vssd1 vccd1 vccd1 sky130_fd_sc_hd__decap_12
X_183_ ring_osc_counter_out[4] _182_/C ring_osc_counter_out[5] vssd1 vssd1 vccd1 vccd1
+ _184_/B sky130_fd_sc_hd__a21oi_1
XFILLER_1_6 vssd1 vssd1 vccd1 vccd1 sky130_fd_sc_hd__decap_4
X_166_ _105_/A _105_/B _122_/Y _143_/A _165_/Y vssd1 vssd1 vccd1 vccd1 _167_/D sky130_fd_sc_hd__o221a_1
XFILLER_19_71 vssd1 vssd1 vccd1 vccd1 sky130_fd_sc_hd__decap_4
X_218_ _221_/CLK _218_/D _201_/Y vssd1 vssd1 vccd1 vccd1 counter_out[0] sky130_fd_sc_hd__dfrtp_4
X_149_ _165_/A _149_/B _149_/C vssd1 vssd1 vccd1 vccd1 _152_/A sky130_fd_sc_hd__and3_1
XPHY_3 vssd1 vssd1 vccd1 vccd1 sky130_fd_sc_hd__decap_3
XFILLER_16_83 vssd1 vssd1 vccd1 vccd1 sky130_fd_sc_hd__fill_1
XFILLER_4_97 vssd1 vssd1 vccd1 vccd1 sky130_fd_sc_hd__decap_8
X_182_ ring_osc_counter_out[4] ring_osc_counter_out[5] _182_/C vssd1 vssd1 vccd1 vccd1
+ _186_/B sky130_fd_sc_hd__and3_1
X_165_ _165_/A _165_/B vssd1 vssd1 vccd1 vccd1 _165_/Y sky130_fd_sc_hd__nand2_1
XFILLER_19_104 vssd1 vssd1 vccd1 vccd1 sky130_fd_sc_hd__fill_1
X_217_ _200_/Y _217_/D _172_/A vssd1 vssd1 vccd1 vccd1 ring_osc_counter_out[7] sky130_fd_sc_hd__dfrtp_4
XFILLER_10_85 vssd1 vssd1 vccd1 vccd1 sky130_fd_sc_hd__decap_12
X_148_ counter_out[2] _147_/X _145_/X vssd1 vssd1 vccd1 vccd1 _220_/D sky130_fd_sc_hd__o21ba_1
XFILLER_21_73 vssd1 vssd1 vccd1 vccd1 sky130_fd_sc_hd__fill_1
XFILLER_21_51 vssd1 vssd1 vccd1 vccd1 sky130_fd_sc_hd__decap_4
XFILLER_16_107 vssd1 vssd1 vccd1 vccd1 sky130_fd_sc_hd__decap_4
XPHY_4 vssd1 vssd1 vccd1 vccd1 sky130_fd_sc_hd__decap_3
XFILLER_21_110 vssd1 vssd1 vccd1 vccd1 sky130_fd_sc_hd__fill_2
XFILLER_4_43 vssd1 vssd1 vccd1 vccd1 sky130_fd_sc_hd__fill_2
X_181_ ring_osc_counter_out[4] _182_/C vssd1 vssd1 vccd1 vccd1 _214_/D sky130_fd_sc_hd__xor2_1
Xbuffers\[19\]._0_ buffers\[19\]._0_/A vssd1 vssd1 vccd1 vccd1 buffers\[20\]._0_/A
+ sky130_fd_sc_hd__inv_2
X_233_ _233_/A vssd1 vssd1 vccd1 vccd1 sum_out[7] sky130_fd_sc_hd__buf_2
X_164_ _164_/A _164_/B _128_/X vssd1 vssd1 vccd1 vccd1 _167_/C sky130_fd_sc_hd__nor3b_1
XFILLER_1_44 vssd1 vssd1 vccd1 vccd1 sky130_fd_sc_hd__fill_1
XFILLER_19_127 vssd1 vssd1 vccd1 vccd1 sky130_fd_sc_hd__decap_6
XFILLER_19_116 vssd1 vssd1 vccd1 vccd1 sky130_fd_sc_hd__decap_6
XFILLER_19_51 vssd1 vssd1 vccd1 vccd1 sky130_fd_sc_hd__decap_4
XFILLER_18_3 vssd1 vssd1 vccd1 vccd1 sky130_fd_sc_hd__decap_12
X_216_ _199_/Y _216_/D _155_/Y vssd1 vssd1 vccd1 vccd1 ring_osc_counter_out[6] sky130_fd_sc_hd__dfrtp_4
X_147_ counter_out[1] _165_/A _149_/B _149_/C vssd1 vssd1 vccd1 vccd1 _147_/X sky130_fd_sc_hd__and4_1
XPHY_5 vssd1 vssd1 vccd1 vccd1 sky130_fd_sc_hd__decap_3
XFILLER_7_65 vssd1 vssd1 vccd1 vccd1 sky130_fd_sc_hd__decap_4
XFILLER_7_76 vssd1 vssd1 vccd1 vccd1 sky130_fd_sc_hd__fill_1
XFILLER_21_133 vssd1 vssd1 vccd1 vccd1 sky130_fd_sc_hd__fill_1
XFILLER_21_122 vssd1 vssd1 vccd1 vccd1 sky130_fd_sc_hd__fill_1
XFILLER_16_96 vssd1 vssd1 vccd1 vccd1 sky130_fd_sc_hd__decap_8
XFILLER_16_85 vssd1 vssd1 vccd1 vccd1 sky130_fd_sc_hd__fill_1
XFILLER_16_41 vssd1 vssd1 vccd1 vccd1 sky130_fd_sc_hd__decap_8
X_180_ _182_/C _180_/B vssd1 vssd1 vccd1 vccd1 _213_/D sky130_fd_sc_hd__nor2_1
XFILLER_13_64 vssd1 vssd1 vccd1 vccd1 sky130_fd_sc_hd__decap_4
X_232_ _232_/A vssd1 vssd1 vccd1 vccd1 sum_out[6] sky130_fd_sc_hd__buf_2
X_163_ _163_/A _163_/B _163_/C vssd1 vssd1 vccd1 vccd1 _163_/X sky130_fd_sc_hd__or3_1
XFILLER_19_63 vssd1 vssd1 vccd1 vccd1 sky130_fd_sc_hd__decap_4
XFILLER_19_41 vssd1 vssd1 vccd1 vccd1 sky130_fd_sc_hd__decap_3
Xbuffers\[18\]._0_ buffers\[18\]._0_/A vssd1 vssd1 vccd1 vccd1 buffers\[19\]._0_/A
+ sky130_fd_sc_hd__inv_2
X_215_ _198_/Y _215_/D _156_/Y vssd1 vssd1 vccd1 vccd1 ring_osc_counter_out[5] sky130_fd_sc_hd__dfrtp_4
X_146_ _143_/A _145_/X _143_/X vssd1 vssd1 vccd1 vccd1 _221_/D sky130_fd_sc_hd__o21ba_1
XFILLER_21_86 vssd1 vssd1 vccd1 vccd1 sky130_fd_sc_hd__decap_4
XPHY_6 vssd1 vssd1 vccd1 vccd1 sky130_fd_sc_hd__decap_3
X_129_ _124_/B _124_/C counter_out[2] vssd1 vssd1 vccd1 vccd1 _164_/A sky130_fd_sc_hd__a21oi_1
XFILLER_16_20 vssd1 vssd1 vccd1 vccd1 sky130_fd_sc_hd__decap_8
XFILLER_5_108 vssd1 vssd1 vccd1 vccd1 sky130_fd_sc_hd__decap_4
XFILLER_4_23 vssd1 vssd1 vccd1 vccd1 sky130_fd_sc_hd__decap_4
XFILLER_4_130 vssd1 vssd1 vccd1 vccd1 sky130_fd_sc_hd__decap_4
XFILLER_1_133 vssd1 vssd1 vccd1 vccd1 sky130_fd_sc_hd__fill_1
XFILLER_8_3 vssd1 vssd1 vccd1 vccd1 sky130_fd_sc_hd__decap_3
XFILLER_13_54 vssd1 vssd1 vccd1 vccd1 sky130_fd_sc_hd__fill_2
XFILLER_13_76 vssd1 vssd1 vccd1 vccd1 sky130_fd_sc_hd__decap_4
X_231_ _231_/A vssd1 vssd1 vccd1 vccd1 sum_out[5] sky130_fd_sc_hd__buf_2
X_162_ _203_/A vssd1 vssd1 vccd1 vccd1 _162_/Y sky130_fd_sc_hd__inv_2
XTAP_90 vssd1 vccd1 sky130_fd_sc_hd__tapvpwrvgnd_1
XFILLER_19_20 vssd1 vssd1 vccd1 vccd1 sky130_fd_sc_hd__decap_4
Xinput1 b[0] vssd1 vssd1 vccd1 vccd1 _226_/A sky130_fd_sc_hd__clkbuf_1
XFILLER_10_44 vssd1 vssd1 vccd1 vccd1 sky130_fd_sc_hd__decap_3
X_214_ _197_/Y _214_/D _157_/Y vssd1 vssd1 vccd1 vccd1 ring_osc_counter_out[4] sky130_fd_sc_hd__dfrtp_4
X_145_ _149_/B _149_/C _145_/C vssd1 vssd1 vccd1 vccd1 _145_/X sky130_fd_sc_hd__and3_1
XPHY_7 vssd1 vssd1 vccd1 vccd1 sky130_fd_sc_hd__decap_3
XFILLER_21_113 vssd1 vssd1 vccd1 vccd1 sky130_fd_sc_hd__fill_2
XFILLER_21_102 vssd1 vssd1 vccd1 vccd1 sky130_fd_sc_hd__decap_8
X_128_ counter_out[0] _165_/B _127_/B counter_out[1] vssd1 vssd1 vccd1 vccd1 _128_/X
+ sky130_fd_sc_hd__o22a_1
Xbuffers\[17\]._0_ buffers\[17\]._0_/A vssd1 vssd1 vccd1 vccd1 buffers\[18\]._0_/A
+ sky130_fd_sc_hd__inv_2
XFILLER_7_23 vssd1 vssd1 vccd1 vccd1 sky130_fd_sc_hd__fill_2
XFILLER_8_117 vssd1 vssd1 vccd1 vccd1 sky130_fd_sc_hd__decap_12
XFILLER_4_35 vssd1 vssd1 vccd1 vccd1 sky130_fd_sc_hd__decap_8
XFILLER_4_68 vssd1 vssd1 vccd1 vccd1 sky130_fd_sc_hd__decap_12
X_230_ _230_/A vssd1 vssd1 vccd1 vccd1 sum_out[4] sky130_fd_sc_hd__buf_2
X_161_ _203_/A vssd1 vssd1 vccd1 vccd1 _161_/Y sky130_fd_sc_hd__inv_2
XFILLER_1_69 vssd1 vssd1 vccd1 vccd1 sky130_fd_sc_hd__decap_12
XFILLER_1_14 vssd1 vssd1 vccd1 vccd1 sky130_fd_sc_hd__decap_12
Xinput2 b[1] vssd1 vssd1 vccd1 vccd1 _227_/A sky130_fd_sc_hd__clkbuf_1
XTAP_91 vssd1 vccd1 sky130_fd_sc_hd__tapvpwrvgnd_1
XTAP_80 vssd1 vccd1 sky130_fd_sc_hd__tapvpwrvgnd_1
XFILLER_10_67 vssd1 vssd1 vccd1 vccd1 sky130_fd_sc_hd__decap_12
XFILLER_19_108 vssd1 vssd1 vccd1 vccd1 sky130_fd_sc_hd__decap_4
XFILLER_19_98 vssd1 vssd1 vccd1 vccd1 sky130_fd_sc_hd__decap_6
X_213_ _196_/Y _213_/D _158_/Y vssd1 vssd1 vccd1 vccd1 ring_osc_counter_out[3] sky130_fd_sc_hd__dfrtp_4
X_144_ counter_out[4] _143_/X _140_/B vssd1 vssd1 vccd1 vccd1 _222_/D sky130_fd_sc_hd__o21ba_1
XFILLER_21_77 vssd1 vssd1 vccd1 vccd1 sky130_fd_sc_hd__decap_6
XFILLER_21_55 vssd1 vssd1 vccd1 vccd1 sky130_fd_sc_hd__fill_1
X_127_ counter_out[1] _127_/B vssd1 vssd1 vccd1 vccd1 _164_/B sky130_fd_sc_hd__and2_1
XFILLER_15_133 vssd1 vssd1 vccd1 vccd1 sky130_fd_sc_hd__fill_1
XFILLER_15_122 vssd1 vssd1 vccd1 vccd1 sky130_fd_sc_hd__fill_1
XPHY_8 vssd1 vssd1 vccd1 vccd1 sky130_fd_sc_hd__decap_3
XFILLER_12_103 vssd1 vssd1 vccd1 vccd1 sky130_fd_sc_hd__decap_4
XFILLER_8_129 vssd1 vssd1 vccd1 vccd1 sky130_fd_sc_hd__decap_4
XFILLER_4_14 vssd1 vssd1 vccd1 vccd1 sky130_fd_sc_hd__decap_3
Xbuffers\[16\]._0_ buffers\[16\]._0_/A vssd1 vssd1 vccd1 vccd1 buffers\[17\]._0_/A
+ sky130_fd_sc_hd__inv_2
XFILLER_1_113 vssd1 vssd1 vccd1 vccd1 sky130_fd_sc_hd__decap_3
XFILLER_13_23 vssd1 vssd1 vccd1 vccd1 sky130_fd_sc_hd__decap_6
XFILLER_1_26 vssd1 vssd1 vccd1 vccd1 sky130_fd_sc_hd__decap_12
X_160_ _204_/A vssd1 vssd1 vccd1 vccd1 _203_/A sky130_fd_sc_hd__buf_2
XTAP_92 vssd1 vccd1 sky130_fd_sc_hd__tapvpwrvgnd_1
Xinput3 b[2] vssd1 vssd1 vccd1 vccd1 _228_/A sky130_fd_sc_hd__clkbuf_1
XTAP_81 vssd1 vccd1 sky130_fd_sc_hd__tapvpwrvgnd_1
XTAP_70 vssd1 vccd1 sky130_fd_sc_hd__tapvpwrvgnd_1
XFILLER_19_55 vssd1 vssd1 vccd1 vccd1 sky130_fd_sc_hd__fill_1
XFILLER_19_11 vssd1 vssd1 vccd1 vccd1 sky130_fd_sc_hd__decap_4
X_212_ _195_/Y _212_/D _159_/Y vssd1 vssd1 vccd1 vccd1 ring_osc_counter_out[2] sky130_fd_sc_hd__dfrtp_4
XFILLER_10_79 vssd1 vssd1 vccd1 vccd1 sky130_fd_sc_hd__decap_4
X_143_ _143_/A _149_/B _149_/C _145_/C vssd1 vssd1 vccd1 vccd1 _143_/X sky130_fd_sc_hd__and4_1
XFILLER_2_80 vssd1 vssd1 vccd1 vccd1 sky130_fd_sc_hd__decap_4
X_126_ _165_/B _126_/B vssd1 vssd1 vccd1 vccd1 _127_/B sky130_fd_sc_hd__xor2_1
XPHY_9 vssd1 vssd1 vccd1 vccd1 sky130_fd_sc_hd__decap_3
X_109_ _111_/A _108_/C _108_/B vssd1 vssd1 vccd1 vccd1 _109_/Y sky130_fd_sc_hd__o21ai_1
XFILLER_7_130 vssd1 vssd1 vccd1 vccd1 sky130_fd_sc_hd__decap_4
XFILLER_13_35 vssd1 vssd1 vccd1 vccd1 sky130_fd_sc_hd__decap_8
XFILLER_13_46 vssd1 vssd1 vccd1 vccd1 sky130_fd_sc_hd__decap_8
XFILLER_13_57 vssd1 vssd1 vccd1 vccd1 sky130_fd_sc_hd__fill_2
XFILLER_5_91 vssd1 vssd1 vccd1 vccd1 sky130_fd_sc_hd__decap_6
Xbuffers\[15\]._0_ buffers\[15\]._0_/A vssd1 vssd1 vccd1 vccd1 buffers\[16\]._0_/A
+ sky130_fd_sc_hd__inv_2
XFILLER_1_38 vssd1 vssd1 vccd1 vccd1 sky130_fd_sc_hd__decap_6
XTAP_93 vssd1 vccd1 sky130_fd_sc_hd__tapvpwrvgnd_1
XTAP_82 vssd1 vccd1 sky130_fd_sc_hd__tapvpwrvgnd_1
Xinput4 b[3] vssd1 vssd1 vccd1 vccd1 _229_/A sky130_fd_sc_hd__clkbuf_1
XTAP_60 vssd1 vccd1 sky130_fd_sc_hd__tapvpwrvgnd_1
XTAP_71 vssd1 vccd1 sky130_fd_sc_hd__tapvpwrvgnd_1
XFILLER_10_36 vssd1 vssd1 vccd1 vccd1 sky130_fd_sc_hd__decap_8
X_211_ _194_/Y _211_/D _161_/Y vssd1 vssd1 vccd1 vccd1 ring_osc_counter_out[1] sky130_fd_sc_hd__dfrtp_4
X_142_ _142_/A vssd1 vssd1 vccd1 vccd1 _149_/C sky130_fd_sc_hd__clkbuf_1
XFILLER_21_57 vssd1 vssd1 vccd1 vccd1 sky130_fd_sc_hd__decap_12
XFILLER_21_24 vssd1 vssd1 vccd1 vccd1 sky130_fd_sc_hd__decap_12
XFILLER_2_92 vssd1 vssd1 vccd1 vccd1 sky130_fd_sc_hd__decap_4
XFILLER_7_15 vssd1 vssd1 vccd1 vccd1 sky130_fd_sc_hd__decap_8
XFILLER_7_48 vssd1 vssd1 vccd1 vccd1 sky130_fd_sc_hd__decap_8
X_125_ counter_out[3] _122_/Y _124_/X vssd1 vssd1 vccd1 vccd1 _167_/B sky130_fd_sc_hd__a21oi_1
XFILLER_21_127 vssd1 vssd1 vccd1 vccd1 sky130_fd_sc_hd__decap_6
X_108_ _111_/A _108_/B _108_/C vssd1 vssd1 vccd1 vccd1 _108_/X sky130_fd_sc_hd__or3_1
XFILLER_7_120 vssd1 vssd1 vccd1 vccd1 sky130_fd_sc_hd__decap_6
XFILLER_4_27 vssd1 vssd1 vccd1 vccd1 sky130_fd_sc_hd__fill_1
XFILLER_1_104 vssd1 vssd1 vccd1 vccd1 sky130_fd_sc_hd__decap_8
Xinput5 b[4] vssd1 vssd1 vccd1 vccd1 _230_/A sky130_fd_sc_hd__clkbuf_1
XTAP_94 vssd1 vccd1 sky130_fd_sc_hd__tapvpwrvgnd_1
XFILLER_19_57 vssd1 vssd1 vccd1 vccd1 sky130_fd_sc_hd__fill_1
XTAP_83 vssd1 vccd1 sky130_fd_sc_hd__tapvpwrvgnd_1
XTAP_50 vssd1 vccd1 sky130_fd_sc_hd__tapvpwrvgnd_1
XTAP_61 vssd1 vccd1 sky130_fd_sc_hd__tapvpwrvgnd_1
XFILLER_10_15 vssd1 vssd1 vccd1 vccd1 sky130_fd_sc_hd__decap_12
XTAP_72 vssd1 vccd1 sky130_fd_sc_hd__tapvpwrvgnd_1
XFILLER_18_133 vssd1 vssd1 vccd1 vccd1 sky130_fd_sc_hd__fill_1
XFILLER_18_111 vssd1 vssd1 vccd1 vccd1 sky130_fd_sc_hd__decap_4
X_210_ _193_/Y _210_/D _162_/Y vssd1 vssd1 vccd1 vccd1 ring_osc_counter_out[0] sky130_fd_sc_hd__dfrtp_4
X_141_ _141_/A vssd1 vssd1 vccd1 vccd1 _149_/B sky130_fd_sc_hd__clkbuf_1
Xbuffers\[14\]._0_ buffers\[14\]._0_/A vssd1 vssd1 vccd1 vccd1 buffers\[15\]._0_/A
+ sky130_fd_sc_hd__inv_2
XFILLER_21_69 vssd1 vssd1 vccd1 vccd1 sky130_fd_sc_hd__decap_4
XFILLER_21_36 vssd1 vssd1 vccd1 vccd1 sky130_fd_sc_hd__decap_12
XFILLER_21_14 vssd1 vssd1 vccd1 vccd1 sky130_fd_sc_hd__decap_6
X_124_ counter_out[2] _124_/B _124_/C vssd1 vssd1 vccd1 vccd1 _124_/X sky130_fd_sc_hd__and3_1
XFILLER_16_6 vssd1 vssd1 vccd1 vccd1 sky130_fd_sc_hd__decap_8
XFILLER_11_91 vssd1 vssd1 vccd1 vccd1 sky130_fd_sc_hd__decap_12
XFILLER_16_14 vssd1 vssd1 vccd1 vccd1 sky130_fd_sc_hd__fill_1
XFILLER_22_90 vssd1 vssd1 vccd1 vccd1 sky130_fd_sc_hd__decap_4
XFILLER_14_3 vssd1 vssd1 vccd1 vccd1 sky130_fd_sc_hd__decap_3
X_107_ counter_out[6] _105_/B _106_/Y _105_/X counter_out[7] vssd1 vssd1 vccd1 vccd1
+ _163_/A sky130_fd_sc_hd__a32o_1
XFILLER_8_70 vssd1 vssd1 vccd1 vccd1 sky130_fd_sc_hd__decap_12
XFILLER_1_127 vssd1 vssd1 vccd1 vccd1 sky130_fd_sc_hd__decap_6
XTAP_95 vssd1 vccd1 sky130_fd_sc_hd__tapvpwrvgnd_1
XTAP_84 vssd1 vccd1 sky130_fd_sc_hd__tapvpwrvgnd_1
XTAP_51 vssd1 vccd1 sky130_fd_sc_hd__tapvpwrvgnd_1
Xinput6 b[5] vssd1 vssd1 vccd1 vccd1 _231_/A sky130_fd_sc_hd__clkbuf_1
XTAP_62 vssd1 vccd1 sky130_fd_sc_hd__tapvpwrvgnd_1
XFILLER_10_27 vssd1 vssd1 vccd1 vccd1 sky130_fd_sc_hd__fill_1
XTAP_73 vssd1 vccd1 sky130_fd_sc_hd__tapvpwrvgnd_1
X_140_ counter_out[5] _140_/B vssd1 vssd1 vccd1 vccd1 _223_/D sky130_fd_sc_hd__xor2_1
XFILLER_21_118 vssd1 vssd1 vccd1 vccd1 sky130_fd_sc_hd__decap_4
X_123_ _165_/B _126_/B _121_/A vssd1 vssd1 vccd1 vccd1 _124_/C sky130_fd_sc_hd__o21ai_1
Xinput20 run vssd1 vssd1 vccd1 vccd1 _200_/B sky130_fd_sc_hd__clkbuf_2
XFILLER_16_59 vssd1 vssd1 vccd1 vccd1 sky130_fd_sc_hd__decap_4
Xbuffers\[13\]._0_ buffers\[13\]._0_/A vssd1 vssd1 vccd1 vccd1 buffers\[14\]._0_/A
+ sky130_fd_sc_hd__inv_2
X_106_ _111_/A _108_/B _108_/C _104_/C vssd1 vssd1 vccd1 vccd1 _106_/Y sky130_fd_sc_hd__o31ai_1
XFILLER_7_100 vssd1 vssd1 vccd1 vccd1 sky130_fd_sc_hd__decap_4
XFILLER_7_111 vssd1 vssd1 vccd1 vccd1 sky130_fd_sc_hd__fill_1
XFILLER_8_82 vssd1 vssd1 vccd1 vccd1 sky130_fd_sc_hd__fill_2
XFILLER_4_29 vssd1 vssd1 vccd1 vccd1 sky130_fd_sc_hd__decap_3
XTAP_85 vssd1 vccd1 sky130_fd_sc_hd__tapvpwrvgnd_1
XTAP_52 vssd1 vccd1 sky130_fd_sc_hd__tapvpwrvgnd_1
Xinput7 b[6] vssd1 vssd1 vccd1 vccd1 _232_/A sky130_fd_sc_hd__clkbuf_1
XTAP_63 vssd1 vccd1 sky130_fd_sc_hd__tapvpwrvgnd_1
XTAP_74 vssd1 vccd1 sky130_fd_sc_hd__tapvpwrvgnd_1
XFILLER_19_15 vssd1 vssd1 vccd1 vccd1 sky130_fd_sc_hd__fill_1
X_199_ _200_/A _200_/B vssd1 vssd1 vccd1 vccd1 _199_/Y sky130_fd_sc_hd__nand2_1
Xclkbuf_1_1_0_clk clkbuf_0_clk/X vssd1 vssd1 vccd1 vccd1 _221_/CLK sky130_fd_sc_hd__clkbuf_2
XFILLER_15_116 vssd1 vssd1 vccd1 vccd1 sky130_fd_sc_hd__decap_6
X_122_ _110_/B _124_/B _111_/B vssd1 vssd1 vccd1 vccd1 _122_/Y sky130_fd_sc_hd__a21oi_1
XFILLER_15_127 vssd1 vssd1 vccd1 vccd1 sky130_fd_sc_hd__decap_6
Xinput10 counter_end[0] vssd1 vssd1 vccd1 vccd1 _120_/A sky130_fd_sc_hd__dlymetal6s2s_1
XFILLER_20_130 vssd1 vssd1 vccd1 vccd1 sky130_fd_sc_hd__decap_4
XFILLER_16_49 vssd1 vssd1 vccd1 vccd1 sky130_fd_sc_hd__fill_2
X_105_ _105_/A _105_/B vssd1 vssd1 vccd1 vccd1 _105_/X sky130_fd_sc_hd__xor2_2
XFILLER_21_6 vssd1 vssd1 vccd1 vccd1 sky130_fd_sc_hd__decap_4
Xbuffers\[12\]._0_ buffers\[12\]._0_/A vssd1 vssd1 vccd1 vccd1 buffers\[13\]._0_/A
+ sky130_fd_sc_hd__inv_2
XTAP_86 vssd1 vccd1 sky130_fd_sc_hd__tapvpwrvgnd_1
XTAP_53 vssd1 vccd1 sky130_fd_sc_hd__tapvpwrvgnd_1
Xinput8 b[7] vssd1 vssd1 vccd1 vccd1 _170_/A sky130_fd_sc_hd__clkbuf_1
XTAP_64 vssd1 vccd1 sky130_fd_sc_hd__tapvpwrvgnd_1
XTAP_75 vssd1 vccd1 sky130_fd_sc_hd__tapvpwrvgnd_1
XFILLER_18_125 vssd1 vssd1 vccd1 vccd1 sky130_fd_sc_hd__decap_8
X_198_ _200_/A _200_/B vssd1 vssd1 vccd1 vccd1 _198_/Y sky130_fd_sc_hd__nand2_1
XFILLER_2_85 vssd1 vssd1 vccd1 vccd1 sky130_fd_sc_hd__fill_2
XFILLER_2_52 vssd1 vssd1 vccd1 vccd1 sky130_fd_sc_hd__decap_4
X_121_ _121_/A _165_/B _126_/B vssd1 vssd1 vccd1 vccd1 _124_/B sky130_fd_sc_hd__or3_1
Xinput11 counter_end[1] vssd1 vssd1 vccd1 vccd1 _126_/B sky130_fd_sc_hd__clkbuf_2
XFILLER_22_60 vssd1 vssd1 vccd1 vccd1 sky130_fd_sc_hd__decap_12
X_104_ _111_/A _108_/B _104_/C _108_/C vssd1 vssd1 vccd1 vccd1 _105_/B sky130_fd_sc_hd__or4_4
Xclkbuf_1_0_0_clk clkbuf_0_clk/X vssd1 vssd1 vccd1 vccd1 _225_/CLK sky130_fd_sc_hd__clkbuf_2