* NGSPICE file created from instrumented_adder.ext - technology: sky130A

* Black-box entry subcircuit for sky130_fd_sc_hd__decap_6 abstract view
.subckt sky130_fd_sc_hd__decap_6 VGND VNB VPB VPWR
.ends

* Black-box entry subcircuit for sky130_fd_sc_hd__decap_12 abstract view
.subckt sky130_fd_sc_hd__decap_12 VGND VNB VPB VPWR
.ends

* Black-box entry subcircuit for sky130_fd_sc_hd__buf_2 abstract view
.subckt sky130_fd_sc_hd__buf_2 A VGND VNB VPB VPWR X
.ends

* Black-box entry subcircuit for sky130_fd_sc_hd__nor2_1 abstract view
.subckt sky130_fd_sc_hd__nor2_1 A B VGND VNB VPB VPWR Y
.ends

* Black-box entry subcircuit for sky130_fd_sc_hd__nand2_1 abstract view
.subckt sky130_fd_sc_hd__nand2_1 A B VGND VNB VPB VPWR Y
.ends

* Black-box entry subcircuit for sky130_fd_sc_hd__fill_2 abstract view
.subckt sky130_fd_sc_hd__fill_2 VGND VNB VPB VPWR
.ends

* Black-box entry subcircuit for sky130_fd_sc_hd__decap_8 abstract view
.subckt sky130_fd_sc_hd__decap_8 VGND VNB VPB VPWR
.ends

* Black-box entry subcircuit for sky130_fd_sc_hd__decap_4 abstract view
.subckt sky130_fd_sc_hd__decap_4 VGND VNB VPB VPWR
.ends

* Black-box entry subcircuit for sky130_fd_sc_hd__fill_1 abstract view
.subckt sky130_fd_sc_hd__fill_1 VGND VNB VPB VPWR
.ends

* Black-box entry subcircuit for sky130_fd_sc_hd__inv_2 abstract view
.subckt sky130_fd_sc_hd__inv_2 A VGND VNB VPB VPWR Y
.ends

* Black-box entry subcircuit for sky130_fd_sc_hd__tapvpwrvgnd_1 abstract view
.subckt sky130_fd_sc_hd__tapvpwrvgnd_1 VGND VPWR
.ends

* Black-box entry subcircuit for sky130_fd_sc_hd__clkbuf_1 abstract view
.subckt sky130_fd_sc_hd__clkbuf_1 A VGND VNB VPB VPWR X
.ends

* Black-box entry subcircuit for sky130_fd_sc_hd__dfrtp_1 abstract view
.subckt sky130_fd_sc_hd__dfrtp_1 CLK D RESET_B VGND VNB VPB VPWR Q
.ends

* Black-box entry subcircuit for sky130_fd_sc_hd__xor2_1 abstract view
.subckt sky130_fd_sc_hd__xor2_1 A B VGND VNB VPB VPWR X
.ends

* Black-box entry subcircuit for sky130_fd_sc_hd__decap_3 abstract view
.subckt sky130_fd_sc_hd__decap_3 VGND VNB VPB VPWR
.ends

* Black-box entry subcircuit for sky130_fd_sc_hd__ebufn_2 abstract view
.subckt sky130_fd_sc_hd__ebufn_2 A TE_B VGND VNB VPB VPWR Z
.ends

* Black-box entry subcircuit for sky130_fd_sc_hd__mux2_1 abstract view
.subckt sky130_fd_sc_hd__mux2_1 A0 A1 S VGND VNB VPB VPWR X
.ends

* Black-box entry subcircuit for sky130_fd_sc_hd__ebufn_4 abstract view
.subckt sky130_fd_sc_hd__ebufn_4 A TE_B VGND VNB VPB VPWR Z
.ends

* Black-box entry subcircuit for sky130_fd_sc_hd__a21oi_1 abstract view
.subckt sky130_fd_sc_hd__a21oi_1 A1 A2 B1 VGND VNB VPB VPWR Y
.ends

* Black-box entry subcircuit for sky130_fd_sc_hd__clkinv_2 abstract view
.subckt sky130_fd_sc_hd__clkinv_2 A VGND VNB VPB VPWR Y
.ends

* Black-box entry subcircuit for sky130_fd_sc_hd__a21o_1 abstract view
.subckt sky130_fd_sc_hd__a21o_1 A1 A2 B1 VGND VNB VPB VPWR X
.ends

* Black-box entry subcircuit for sky130_fd_sc_hd__ebufn_8 abstract view
.subckt sky130_fd_sc_hd__ebufn_8 A TE_B VGND VNB VPB VPWR Z
.ends

* Black-box entry subcircuit for sky130_fd_sc_hd__dfrtp_4 abstract view
.subckt sky130_fd_sc_hd__dfrtp_4 CLK D RESET_B VGND VNB VPB VPWR Q
.ends

* Black-box entry subcircuit for sky130_fd_sc_hd__and2_1 abstract view
.subckt sky130_fd_sc_hd__and2_1 A B VGND VNB VPB VPWR X
.ends

* Black-box entry subcircuit for sky130_fd_sc_hd__clkbuf_16 abstract view
.subckt sky130_fd_sc_hd__clkbuf_16 A VGND VNB VPB VPWR X
.ends

* Black-box entry subcircuit for sky130_fd_sc_hd__xor2_2 abstract view
.subckt sky130_fd_sc_hd__xor2_2 A B VGND VNB VPB VPWR X
.ends

* Black-box entry subcircuit for sky130_fd_sc_hd__ebufn_1 abstract view
.subckt sky130_fd_sc_hd__ebufn_1 A TE_B VGND VNB VPB VPWR Z
.ends

* Black-box entry subcircuit for sky130_fd_sc_hd__and3_1 abstract view
.subckt sky130_fd_sc_hd__and3_1 A B C VGND VNB VPB VPWR X
.ends

* Black-box entry subcircuit for sky130_fd_sc_hd__a31o_1 abstract view
.subckt sky130_fd_sc_hd__a31o_1 A1 A2 A3 B1 VGND VNB VPB VPWR X
.ends

* Black-box entry subcircuit for sky130_fd_sc_hd__a2bb2o_1 abstract view
.subckt sky130_fd_sc_hd__a2bb2o_1 A1_N A2_N B1 B2 VGND VNB VPB VPWR X
.ends

* Black-box entry subcircuit for sky130_fd_sc_hd__or2_1 abstract view
.subckt sky130_fd_sc_hd__or2_1 A B VGND VNB VPB VPWR X
.ends

* Black-box entry subcircuit for sky130_fd_sc_hd__and4_1 abstract view
.subckt sky130_fd_sc_hd__and4_1 A B C D VGND VNB VPB VPWR X
.ends

* Black-box entry subcircuit for sky130_fd_sc_hd__and2b_1 abstract view
.subckt sky130_fd_sc_hd__and2b_1 A_N B VGND VNB VPB VPWR X
.ends

* Black-box entry subcircuit for sky130_fd_sc_hd__o311a_2 abstract view
.subckt sky130_fd_sc_hd__o311a_2 A1 A2 A3 B1 C1 VGND VNB VPB VPWR X
.ends

* Black-box entry subcircuit for sky130_fd_sc_hd__xnor2_1 abstract view
.subckt sky130_fd_sc_hd__xnor2_1 A B VGND VNB VPB VPWR Y
.ends

* Black-box entry subcircuit for sky130_fd_sc_hd__nor3b_2 abstract view
.subckt sky130_fd_sc_hd__nor3b_2 A B C_N VGND VNB VPB VPWR Y
.ends

* Black-box entry subcircuit for sky130_fd_sc_hd__a21bo_1 abstract view
.subckt sky130_fd_sc_hd__a21bo_1 A1 A2 B1_N VGND VNB VPB VPWR X
.ends

* Black-box entry subcircuit for sky130_fd_sc_hd__o31a_1 abstract view
.subckt sky130_fd_sc_hd__o31a_1 A1 A2 A3 B1 VGND VNB VPB VPWR X
.ends

* Black-box entry subcircuit for sky130_fd_sc_hd__or4_1 abstract view
.subckt sky130_fd_sc_hd__or4_1 A B C D VGND VNB VPB VPWR X
.ends

* Black-box entry subcircuit for sky130_fd_sc_hd__dlymetal6s2s_1 abstract view
.subckt sky130_fd_sc_hd__dlymetal6s2s_1 A VGND VNB VPB VPWR X
.ends

* Black-box entry subcircuit for sky130_fd_sc_hd__xnor2_2 abstract view
.subckt sky130_fd_sc_hd__xnor2_2 A B VGND VNB VPB VPWR Y
.ends

* Black-box entry subcircuit for sky130_fd_sc_hd__clkbuf_2 abstract view
.subckt sky130_fd_sc_hd__clkbuf_2 A VGND VNB VPB VPWR X
.ends

* Black-box entry subcircuit for sky130_fd_sc_hd__a211oi_1 abstract view
.subckt sky130_fd_sc_hd__a211oi_1 A1 A2 B1 C1 VGND VNB VPB VPWR Y
.ends

* Black-box entry subcircuit for sky130_fd_sc_hd__o211a_1 abstract view
.subckt sky130_fd_sc_hd__o211a_1 A1 A2 B1 C1 VGND VNB VPB VPWR X
.ends

* Black-box entry subcircuit for sky130_fd_sc_hd__o211ai_4 abstract view
.subckt sky130_fd_sc_hd__o211ai_4 A1 A2 B1 C1 VGND VNB VPB VPWR Y
.ends

* Black-box entry subcircuit for sky130_fd_sc_hd__nand2_2 abstract view
.subckt sky130_fd_sc_hd__nand2_2 A B VGND VNB VPB VPWR Y
.ends

* Black-box entry subcircuit for sky130_fd_sc_hd__or3_2 abstract view
.subckt sky130_fd_sc_hd__or3_2 A B C VGND VNB VPB VPWR X
.ends

* Black-box entry subcircuit for sky130_fd_sc_hd__or4_2 abstract view
.subckt sky130_fd_sc_hd__or4_2 A B C D VGND VNB VPB VPWR X
.ends

* Black-box entry subcircuit for sky130_fd_sc_hd__or3b_1 abstract view
.subckt sky130_fd_sc_hd__or3b_1 A B C_N VGND VNB VPB VPWR X
.ends

* Black-box entry subcircuit for sky130_fd_sc_hd__or3_1 abstract view
.subckt sky130_fd_sc_hd__or3_1 A B C VGND VNB VPB VPWR X
.ends

* Black-box entry subcircuit for sky130_fd_sc_hd__nand2_4 abstract view
.subckt sky130_fd_sc_hd__nand2_4 A B VGND VNB VPB VPWR Y
.ends

* Black-box entry subcircuit for sky130_fd_sc_hd__or4b_1 abstract view
.subckt sky130_fd_sc_hd__or4b_1 A B C D_N VGND VNB VPB VPWR X
.ends

* Black-box entry subcircuit for sky130_fd_sc_hd__a311o_1 abstract view
.subckt sky130_fd_sc_hd__a311o_1 A1 A2 A3 B1 C1 VGND VNB VPB VPWR X
.ends

* Black-box entry subcircuit for sky130_fd_sc_hd__o21a_1 abstract view
.subckt sky130_fd_sc_hd__o21a_1 A1 A2 B1 VGND VNB VPB VPWR X
.ends

* Black-box entry subcircuit for sky130_fd_sc_hd__a22oi_1 abstract view
.subckt sky130_fd_sc_hd__a22oi_1 A1 A2 B1 B2 VGND VNB VPB VPWR Y
.ends

.subckt instrumented_adder a_input[0] a_input[1] a_input[2] a_input[3] a_input[4]
+ a_input[5] a_input[6] a_input[7] a_input_ext_bit_b[0] a_input_ext_bit_b[1] a_input_ext_bit_b[2]
+ a_input_ext_bit_b[3] a_input_ext_bit_b[4] a_input_ext_bit_b[5] a_input_ext_bit_b[6]
+ a_input_ext_bit_b[7] a_input_ring_bit_b[0] a_input_ring_bit_b[1] a_input_ring_bit_b[2]
+ a_input_ring_bit_b[3] a_input_ring_bit_b[4] a_input_ring_bit_b[5] a_input_ring_bit_b[6]
+ a_input_ring_bit_b[7] b_input[0] b_input[1] b_input[2] b_input[3] b_input[4] b_input[5]
+ b_input[6] b_input[7] bypass_b clk control_b counter_enable counter_load done extra_inverter
+ integration_time[0] integration_time[1] integration_time[2] integration_time[3]
+ integration_time[4] integration_time[5] integration_time[6] integration_time[7]
+ reset ring_osc_counter_out[0] ring_osc_counter_out[1] ring_osc_counter_out[2] ring_osc_counter_out[3]
+ ring_osc_counter_out[4] ring_osc_counter_out[5] ring_osc_counter_out[6] ring_osc_counter_out[7]
+ ring_osc_out s_output_bit_b[0] s_output_bit_b[1] s_output_bit_b[2] s_output_bit_b[3]
+ s_output_bit_b[4] s_output_bit_b[5] s_output_bit_b[6] s_output_bit_b[7] stop_b sum_out[0]
+ sum_out[1] sum_out[2] sum_out[3] sum_out[4] sum_out[5] sum_out[6] sum_out[7] vccd1
+ vssd1
XFILLER_22_133 vssd1 vssd1 vccd1 vccd1 sky130_fd_sc_hd__decap_6
XFILLER_13_100 vssd1 vssd1 vccd1 vccd1 sky130_fd_sc_hd__decap_12
XFILLER_12_32 vssd1 vssd1 vccd1 vccd1 sky130_fd_sc_hd__decap_12
X_277_ _277_/A vssd1 vssd1 vccd1 vccd1 sum_out[6] sky130_fd_sc_hd__buf_2
X_200_ ring_osc_counter_out[1] _204_/A vssd1 vssd1 vccd1 vccd1 _201_/B sky130_fd_sc_hd__nor2_1
X_131_ _144_/A _144_/B vssd1 vssd1 vccd1 vccd1 _145_/A sky130_fd_sc_hd__nand2_1
XFILLER_2_121 vssd1 vssd1 vccd1 vccd1 sky130_fd_sc_hd__fill_2
XFILLER_0_46 vssd1 vssd1 vccd1 vccd1 sky130_fd_sc_hd__decap_8
XFILLER_0_13 vssd1 vssd1 vccd1 vccd1 sky130_fd_sc_hd__decap_4
XFILLER_18_64 vssd1 vssd1 vccd1 vccd1 sky130_fd_sc_hd__fill_1
XFILLER_20_76 vssd1 vssd1 vccd1 vccd1 sky130_fd_sc_hd__fill_1
XFILLER_20_43 vssd1 vssd1 vccd1 vccd1 sky130_fd_sc_hd__decap_12
XFILLER_13_3 vssd1 vssd1 vccd1 vccd1 sky130_fd_sc_hd__decap_4
XFILLER_25_131 vssd1 vssd1 vccd1 vccd1 sky130_fd_sc_hd__fill_1
Xinverters\[4\]._0_ inverters\[4\]._0_/A vssd1 vssd1 vccd1 vccd1 inverters\[5\]._0_/A
+ sky130_fd_sc_hd__inv_2
XTAP_112 vssd1 vccd1 sky130_fd_sc_hd__tapvpwrvgnd_1
XTAP_101 vssd1 vccd1 sky130_fd_sc_hd__tapvpwrvgnd_1
XFILLER_9_149 vssd1 vssd1 vccd1 vccd1 sky130_fd_sc_hd__decap_6
XFILLER_12_44 vssd1 vssd1 vccd1 vccd1 sky130_fd_sc_hd__decap_12
XFILLER_12_22 vssd1 vssd1 vccd1 vccd1 sky130_fd_sc_hd__decap_6
X_276_ _276_/A vssd1 vssd1 vccd1 vccd1 sum_out[5] sky130_fd_sc_hd__buf_2
X_130_ _130_/A vssd1 vssd1 vccd1 vccd1 _271_/A sky130_fd_sc_hd__clkbuf_1
XFILLER_23_98 vssd1 vssd1 vccd1 vccd1 sky130_fd_sc_hd__decap_4
X_259_ _260_/CLK _259_/D _162_/Y vssd1 vssd1 vccd1 vccd1 _259_/Q sky130_fd_sc_hd__dfrtp_1
XFILLER_9_12 vssd1 vssd1 vccd1 vccd1 sky130_fd_sc_hd__fill_1
XFILLER_20_55 vssd1 vssd1 vccd1 vccd1 sky130_fd_sc_hd__fill_2
XFILLER_1_90 vssd1 vssd1 vccd1 vccd1 sky130_fd_sc_hd__decap_4
XFILLER_19_151 vssd1 vssd1 vccd1 vccd1 sky130_fd_sc_hd__decap_4
XFILLER_19_140 vssd1 vssd1 vccd1 vccd1 sky130_fd_sc_hd__fill_1
XFILLER_6_24 vssd1 vssd1 vccd1 vccd1 sky130_fd_sc_hd__decap_4
XFILLER_15_44 vssd1 vssd1 vccd1 vccd1 sky130_fd_sc_hd__decap_4
XFILLER_15_11 vssd1 vssd1 vccd1 vccd1 sky130_fd_sc_hd__fill_1
XFILLER_15_99 vssd1 vssd1 vccd1 vccd1 sky130_fd_sc_hd__decap_4
XTAP_113 vssd1 vccd1 sky130_fd_sc_hd__tapvpwrvgnd_1
XTAP_102 vssd1 vccd1 sky130_fd_sc_hd__tapvpwrvgnd_1
XFILLER_7_9 vssd1 vssd1 vccd1 vccd1 sky130_fd_sc_hd__fill_1
XFILLER_9_139 vssd1 vssd1 vccd1 vccd1 sky130_fd_sc_hd__fill_1
XFILLER_8_150 vssd1 vssd1 vccd1 vccd1 sky130_fd_sc_hd__decap_4
Xinverters\[3\]._0_ inverters\[3\]._0_/A vssd1 vssd1 vccd1 vccd1 inverters\[4\]._0_/A
+ sky130_fd_sc_hd__inv_2
XFILLER_12_56 vssd1 vssd1 vccd1 vccd1 sky130_fd_sc_hd__decap_12
XFILLER_5_6 vssd1 vssd1 vccd1 vccd1 sky130_fd_sc_hd__decap_4
X_275_ _275_/A vssd1 vssd1 vccd1 vccd1 sum_out[4] sky130_fd_sc_hd__buf_2
X_189_ _192_/A vssd1 vssd1 vccd1 vccd1 _189_/Y sky130_fd_sc_hd__inv_2
X_258_ _260_/CLK _258_/D _161_/Y vssd1 vssd1 vccd1 vccd1 _258_/Q sky130_fd_sc_hd__dfrtp_1
XFILLER_9_79 vssd1 vssd1 vccd1 vccd1 sky130_fd_sc_hd__decap_8
XFILLER_18_99 vssd1 vssd1 vccd1 vccd1 sky130_fd_sc_hd__fill_1
XFILLER_6_36 vssd1 vssd1 vccd1 vccd1 sky130_fd_sc_hd__decap_4
XFILLER_16_144 vssd1 vssd1 vccd1 vccd1 sky130_fd_sc_hd__decap_4
XTAP_114 vssd1 vccd1 sky130_fd_sc_hd__tapvpwrvgnd_1
XTAP_103 vssd1 vccd1 sky130_fd_sc_hd__tapvpwrvgnd_1
XFILLER_13_136 vssd1 vssd1 vccd1 vccd1 sky130_fd_sc_hd__decap_4
XFILLER_12_68 vssd1 vssd1 vccd1 vccd1 sky130_fd_sc_hd__fill_2
XFILLER_10_139 vssd1 vssd1 vccd1 vccd1 sky130_fd_sc_hd__fill_1
X_274_ _274_/A vssd1 vssd1 vccd1 vccd1 sum_out[3] sky130_fd_sc_hd__buf_2
XFILLER_2_113 vssd1 vssd1 vccd1 vccd1 sky130_fd_sc_hd__decap_8
Xinverters\[2\]._0_ inverters\[2\]._0_/A vssd1 vssd1 vccd1 vccd1 inverters\[3\]._0_/A
+ sky130_fd_sc_hd__inv_2
X_257_ _260_/CLK _257_/D _160_/Y vssd1 vssd1 vccd1 vccd1 _257_/Q sky130_fd_sc_hd__dfrtp_1
X_188_ ring_osc_counter_out[5] _188_/B vssd1 vssd1 vccd1 vccd1 _267_/D sky130_fd_sc_hd__xor2_1
XFILLER_20_24 vssd1 vssd1 vccd1 vccd1 sky130_fd_sc_hd__decap_4
XFILLER_20_68 vssd1 vssd1 vccd1 vccd1 sky130_fd_sc_hd__decap_8
XFILLER_19_120 vssd1 vssd1 vccd1 vccd1 sky130_fd_sc_hd__decap_12
XFILLER_25_123 vssd1 vssd1 vccd1 vccd1 sky130_fd_sc_hd__decap_8
XFILLER_15_57 vssd1 vssd1 vccd1 vccd1 sky130_fd_sc_hd__fill_2
XTAP_115 vssd1 vccd1 sky130_fd_sc_hd__tapvpwrvgnd_1
XTAP_104 vssd1 vccd1 sky130_fd_sc_hd__tapvpwrvgnd_1
XFILLER_16_134 vssd1 vssd1 vccd1 vccd1 sky130_fd_sc_hd__decap_6
XFILLER_11_3 vssd1 vssd1 vccd1 vccd1 sky130_fd_sc_hd__decap_6
XFILLER_13_126 vssd1 vssd1 vccd1 vccd1 sky130_fd_sc_hd__decap_3
XFILLER_9_108 vssd1 vssd1 vccd1 vccd1 sky130_fd_sc_hd__decap_4
XFILLER_12_14 vssd1 vssd1 vccd1 vccd1 sky130_fd_sc_hd__decap_4
X_273_ _273_/A vssd1 vssd1 vccd1 vccd1 sum_out[2] sky130_fd_sc_hd__buf_2
XFILLER_2_136 vssd1 vssd1 vccd1 vccd1 sky130_fd_sc_hd__decap_4
XFILLER_4_70 vssd1 vssd1 vccd1 vccd1 sky130_fd_sc_hd__decap_4
X_187_ _192_/A vssd1 vssd1 vccd1 vccd1 _187_/Y sky130_fd_sc_hd__inv_2
XFILLER_0_39 vssd1 vssd1 vccd1 vccd1 sky130_fd_sc_hd__decap_4
X_256_ _261_/CLK _256_/D _159_/Y vssd1 vssd1 vccd1 vccd1 _256_/Q sky130_fd_sc_hd__dfrtp_1
XFILLER_18_68 vssd1 vssd1 vccd1 vccd1 sky130_fd_sc_hd__decap_12
X_239_ _239_/A vssd1 vssd1 vccd1 vccd1 _254_/D sky130_fd_sc_hd__clkbuf_1
Xinverters\[1\]._0_ inverters\[1\]._0_/A vssd1 vssd1 vccd1 vccd1 inverters\[2\]._0_/A
+ sky130_fd_sc_hd__inv_2
XFILLER_20_36 vssd1 vssd1 vccd1 vccd1 sky130_fd_sc_hd__decap_4
XFILLER_20_14 vssd1 vssd1 vccd1 vccd1 sky130_fd_sc_hd__decap_6
Xinverters\[19\]._0_ inverters\[19\]._0_/A vssd1 vssd1 vccd1 vccd1 inverters\[20\]._0_/A
+ sky130_fd_sc_hd__inv_2
XFILLER_6_16 vssd1 vssd1 vccd1 vccd1 sky130_fd_sc_hd__decap_4
XFILLER_19_132 vssd1 vssd1 vccd1 vccd1 sky130_fd_sc_hd__decap_8
XFILLER_13_7 vssd1 vssd1 vccd1 vccd1 sky130_fd_sc_hd__fill_1
Xtristate_ring_inputs\[7\]._0_ _242_/Y input24/X vssd1 vssd1 vccd1 vccd1 _141_/B sky130_fd_sc_hd__ebufn_2
XTAP_116 vssd1 vccd1 sky130_fd_sc_hd__tapvpwrvgnd_1
XTAP_105 vssd1 vccd1 sky130_fd_sc_hd__tapvpwrvgnd_1
XFILLER_13_149 vssd1 vssd1 vccd1 vccd1 sky130_fd_sc_hd__decap_6
X_272_ _272_/A vssd1 vssd1 vccd1 vccd1 sum_out[1] sky130_fd_sc_hd__buf_2
XFILLER_23_25 vssd1 vssd1 vccd1 vccd1 sky130_fd_sc_hd__fill_1
X_186_ _186_/A _186_/B vssd1 vssd1 vccd1 vccd1 _268_/D sky130_fd_sc_hd__nor2_1
XFILLER_3_6 vssd1 vssd1 vccd1 vccd1 sky130_fd_sc_hd__decap_4
X_255_ _261_/CLK _255_/D _157_/Y vssd1 vssd1 vccd1 vccd1 _255_/Q sky130_fd_sc_hd__dfrtp_1
XFILLER_9_16 vssd1 vssd1 vccd1 vccd1 sky130_fd_sc_hd__decap_4
XFILLER_9_27 vssd1 vssd1 vccd1 vccd1 sky130_fd_sc_hd__decap_12
X_169_ _270_/Q vssd1 vssd1 vccd1 vccd1 _169_/Y sky130_fd_sc_hd__inv_2
X_238_ _237_/X _238_/A1 _238_/S vssd1 vssd1 vccd1 vccd1 _239_/A sky130_fd_sc_hd__mux2_1
XFILLER_19_144 vssd1 vssd1 vccd1 vccd1 sky130_fd_sc_hd__decap_4
XFILLER_25_136 vssd1 vssd1 vccd1 vccd1 sky130_fd_sc_hd__decap_4
XFILLER_15_15 vssd1 vssd1 vccd1 vccd1 sky130_fd_sc_hd__decap_6
XTAP_117 vssd1 vccd1 sky130_fd_sc_hd__tapvpwrvgnd_1
XFILLER_22_139 vssd1 vssd1 vccd1 vccd1 sky130_fd_sc_hd__fill_1
XTAP_106 vssd1 vccd1 sky130_fd_sc_hd__tapvpwrvgnd_1
Xinverters\[0\]._0_ _243_/X vssd1 vssd1 vccd1 vccd1 inverters\[1\]._0_/A sky130_fd_sc_hd__inv_2
XPHY_0 vssd1 vssd1 vccd1 vccd1 sky130_fd_sc_hd__decap_3
Xinverters\[18\]._0_ inverters\[18\]._0_/A vssd1 vssd1 vccd1 vccd1 inverters\[19\]._0_/A
+ sky130_fd_sc_hd__inv_2
XFILLER_7_71 vssd1 vssd1 vccd1 vccd1 sky130_fd_sc_hd__decap_12
XFILLER_12_150 vssd1 vssd1 vccd1 vccd1 sky130_fd_sc_hd__decap_4
Xtristate_ring_inputs\[6\]._0_ _242_/Y input23/X vssd1 vssd1 vccd1 vccd1 _144_/B sky130_fd_sc_hd__ebufn_4
XFILLER_8_154 vssd1 vssd1 vccd1 vccd1 sky130_fd_sc_hd__fill_1
X_271_ _271_/A vssd1 vssd1 vccd1 vccd1 sum_out[0] sky130_fd_sc_hd__buf_2
XFILLER_5_124 vssd1 vssd1 vccd1 vccd1 sky130_fd_sc_hd__fill_2
XFILLER_4_83 vssd1 vssd1 vccd1 vccd1 sky130_fd_sc_hd__fill_1
X_185_ ring_osc_counter_out[5] _188_/B ring_osc_counter_out[6] vssd1 vssd1 vccd1 vccd1
+ _186_/B sky130_fd_sc_hd__a21oi_1
XFILLER_9_39 vssd1 vssd1 vccd1 vccd1 sky130_fd_sc_hd__decap_8
X_254_ _261_/CLK _254_/D _156_/Y vssd1 vssd1 vccd1 vccd1 _254_/Q sky130_fd_sc_hd__dfrtp_1
XFILLER_18_15 vssd1 vssd1 vccd1 vccd1 sky130_fd_sc_hd__decap_12
X_168_ _241_/A vssd1 vssd1 vccd1 vccd1 _168_/Y sky130_fd_sc_hd__clkinv_2
X_237_ _229_/B _205_/Y _234_/B vssd1 vssd1 vccd1 vccd1 _237_/X sky130_fd_sc_hd__a21o_1
XFILLER_1_62 vssd1 vssd1 vccd1 vccd1 sky130_fd_sc_hd__decap_6
Xtristate_sum_outputs\[7\]._0_ _278_/A input54/X vssd1 vssd1 vccd1 vccd1 ring_osc_out
+ sky130_fd_sc_hd__ebufn_8
XFILLER_16_115 vssd1 vssd1 vccd1 vccd1 sky130_fd_sc_hd__fill_2
XTAP_118 vssd1 vccd1 sky130_fd_sc_hd__tapvpwrvgnd_1
XTAP_107 vssd1 vccd1 sky130_fd_sc_hd__tapvpwrvgnd_1
XFILLER_21_70 vssd1 vssd1 vccd1 vccd1 sky130_fd_sc_hd__decap_4
XPHY_1 vssd1 vssd1 vccd1 vccd1 sky130_fd_sc_hd__decap_3
XFILLER_13_118 vssd1 vssd1 vccd1 vccd1 sky130_fd_sc_hd__decap_8
XFILLER_16_70 vssd1 vssd1 vccd1 vccd1 sky130_fd_sc_hd__decap_6
X_270_ ring_osc_out _270_/D _173_/Y vssd1 vssd1 vccd1 vccd1 _270_/Q sky130_fd_sc_hd__dfrtp_4
XFILLER_5_136 vssd1 vssd1 vccd1 vccd1 sky130_fd_sc_hd__decap_4
XFILLER_4_95 vssd1 vssd1 vccd1 vccd1 sky130_fd_sc_hd__decap_6
Xinverters\[17\]._0_ inverters\[17\]._0_/A vssd1 vssd1 vccd1 vccd1 inverters\[18\]._0_/A
+ sky130_fd_sc_hd__inv_2
XFILLER_23_38 vssd1 vssd1 vccd1 vccd1 sky130_fd_sc_hd__decap_12
Xtristate_ring_inputs\[5\]._0_ _242_/Y input22/X vssd1 vssd1 vccd1 vccd1 _148_/B sky130_fd_sc_hd__ebufn_2
X_184_ _192_/A vssd1 vssd1 vccd1 vccd1 _184_/Y sky130_fd_sc_hd__inv_2
X_253_ _253_/A _253_/B vssd1 vssd1 vccd1 vccd1 _253_/X sky130_fd_sc_hd__and2_1
XFILLER_18_27 vssd1 vssd1 vccd1 vccd1 sky130_fd_sc_hd__fill_1
X_167_ _241_/A vssd1 vssd1 vccd1 vccd1 _167_/Y sky130_fd_sc_hd__clkinv_2
X_236_ _236_/A vssd1 vssd1 vccd1 vccd1 _255_/D sky130_fd_sc_hd__clkbuf_1
XFILLER_19_113 vssd1 vssd1 vccd1 vccd1 sky130_fd_sc_hd__fill_2
XFILLER_10_94 vssd1 vssd1 vccd1 vccd1 sky130_fd_sc_hd__fill_1
X_219_ _218_/X _219_/A1 _223_/S vssd1 vssd1 vccd1 vccd1 _220_/A sky130_fd_sc_hd__mux2_1
XFILLER_19_92 vssd1 vssd1 vccd1 vccd1 sky130_fd_sc_hd__decap_12
XFILLER_16_127 vssd1 vssd1 vccd1 vccd1 sky130_fd_sc_hd__decap_4
XTAP_119 vssd1 vccd1 sky130_fd_sc_hd__tapvpwrvgnd_1
XTAP_108 vssd1 vccd1 sky130_fd_sc_hd__tapvpwrvgnd_1
Xclkbuf_0_clk clk vssd1 vssd1 vccd1 vccd1 clkbuf_0_clk/X sky130_fd_sc_hd__clkbuf_16
XPHY_2 vssd1 vssd1 vccd1 vccd1 sky130_fd_sc_hd__decap_3
XFILLER_21_141 vssd1 vssd1 vccd1 vccd1 sky130_fd_sc_hd__decap_4
XFILLER_7_40 vssd1 vssd1 vccd1 vccd1 sky130_fd_sc_hd__decap_6
Xtristate_sum_outputs\[6\]._0_ _277_/A input53/X vssd1 vssd1 vccd1 vccd1 ring_osc_out
+ sky130_fd_sc_hd__ebufn_8
XFILLER_8_101 vssd1 vssd1 vccd1 vccd1 sky130_fd_sc_hd__decap_6
XFILLER_8_134 vssd1 vssd1 vccd1 vccd1 sky130_fd_sc_hd__decap_6
XFILLER_4_63 vssd1 vssd1 vccd1 vccd1 sky130_fd_sc_hd__decap_4
XFILLER_4_85 vssd1 vssd1 vccd1 vccd1 sky130_fd_sc_hd__decap_4
XFILLER_13_50 vssd1 vssd1 vccd1 vccd1 sky130_fd_sc_hd__decap_6
X_183_ ring_osc_counter_out[7] _186_/A vssd1 vssd1 vccd1 vccd1 _269_/D sky130_fd_sc_hd__xor2_1
XFILLER_1_151 vssd1 vssd1 vccd1 vccd1 sky130_fd_sc_hd__decap_4
X_252_ _252_/A _252_/B vssd1 vssd1 vccd1 vccd1 _274_/A sky130_fd_sc_hd__xor2_2
XFILLER_24_60 vssd1 vssd1 vccd1 vccd1 sky130_fd_sc_hd__fill_1
XFILLER_1_6 vssd1 vssd1 vccd1 vccd1 sky130_fd_sc_hd__decap_6
Xinverters\[16\]._0_ inverters\[16\]._0_/A vssd1 vssd1 vccd1 vccd1 inverters\[17\]._0_/A
+ sky130_fd_sc_hd__inv_2
X_235_ _234_/X _235_/A1 _238_/S vssd1 vssd1 vccd1 vccd1 _236_/A sky130_fd_sc_hd__mux2_1
X_166_ _241_/A vssd1 vssd1 vccd1 vccd1 _166_/Y sky130_fd_sc_hd__inv_2
Xtristate_ring_inputs\[4\]._0_ _242_/Y input21/X vssd1 vssd1 vccd1 vccd1 _151_/B sky130_fd_sc_hd__ebufn_2
XFILLER_10_62 vssd1 vssd1 vccd1 vccd1 sky130_fd_sc_hd__decap_4
X_218_ _259_/Q _222_/A vssd1 vssd1 vccd1 vccd1 _218_/X sky130_fd_sc_hd__xor2_1
X_149_ _149_/A _149_/B vssd1 vssd1 vccd1 vccd1 _150_/B sky130_fd_sc_hd__nand2_1
Xbypass1._0_ _242_/Y input33/X vssd1 vssd1 vccd1 vccd1 bypass2._0_/A sky130_fd_sc_hd__ebufn_1
XTAP_109 vssd1 vccd1 sky130_fd_sc_hd__tapvpwrvgnd_1
XFILLER_21_61 vssd1 vssd1 vccd1 vccd1 sky130_fd_sc_hd__decap_6
XPHY_3 vssd1 vssd1 vccd1 vccd1 sky130_fd_sc_hd__decap_3
XFILLER_7_52 vssd1 vssd1 vccd1 vccd1 sky130_fd_sc_hd__decap_4
XFILLER_21_120 vssd1 vssd1 vccd1 vccd1 sky130_fd_sc_hd__fill_1
XFILLER_16_83 vssd1 vssd1 vccd1 vccd1 sky130_fd_sc_hd__fill_1
XFILLER_5_116 vssd1 vssd1 vccd1 vccd1 sky130_fd_sc_hd__decap_8
XFILLER_5_149 vssd1 vssd1 vccd1 vccd1 sky130_fd_sc_hd__decap_6
Xtristate_sum_outputs\[5\]._0_ _276_/A input52/X vssd1 vssd1 vccd1 vccd1 ring_osc_out
+ sky130_fd_sc_hd__ebufn_8
X_182_ ring_osc_counter_out[6] ring_osc_counter_out[5] _188_/B vssd1 vssd1 vccd1 vccd1
+ _186_/A sky130_fd_sc_hd__and3_1
X_251_ _247_/Y _248_/Y _249_/Y _250_/Y vssd1 vssd1 vccd1 vccd1 _252_/B sky130_fd_sc_hd__a31o_1
XFILLER_24_72 vssd1 vssd1 vccd1 vccd1 sky130_fd_sc_hd__fill_1
X_165_ _241_/A vssd1 vssd1 vccd1 vccd1 _165_/Y sky130_fd_sc_hd__clkinv_2
X_234_ _255_/Q _234_/B vssd1 vssd1 vccd1 vccd1 _234_/X sky130_fd_sc_hd__xor2_1
X_217_ _215_/Y _216_/X _223_/S _217_/B2 vssd1 vssd1 vccd1 vccd1 _260_/D sky130_fd_sc_hd__a2bb2o_1
XFILLER_19_104 vssd1 vssd1 vccd1 vccd1 sky130_fd_sc_hd__decap_8
XFILLER_19_61 vssd1 vssd1 vccd1 vccd1 sky130_fd_sc_hd__fill_1
X_148_ _148_/A _148_/B vssd1 vssd1 vccd1 vccd1 _149_/B sky130_fd_sc_hd__or2_1
XFILLER_10_41 vssd1 vssd1 vccd1 vccd1 sky130_fd_sc_hd__decap_8
Xinverters\[15\]._0_ inverters\[15\]._0_/A vssd1 vssd1 vccd1 vccd1 inverters\[16\]._0_/A
+ sky130_fd_sc_hd__inv_2
XFILLER_24_151 vssd1 vssd1 vccd1 vccd1 sky130_fd_sc_hd__decap_4
XFILLER_16_107 vssd1 vssd1 vccd1 vccd1 sky130_fd_sc_hd__decap_8
XPHY_4 vssd1 vssd1 vccd1 vccd1 sky130_fd_sc_hd__decap_3
Xtristate_ring_inputs\[3\]._0_ _242_/Y input20/X vssd1 vssd1 vccd1 vccd1 _245_/B sky130_fd_sc_hd__ebufn_2
XFILLER_7_64 vssd1 vssd1 vccd1 vccd1 sky130_fd_sc_hd__decap_4
XFILLER_7_86 vssd1 vssd1 vccd1 vccd1 sky130_fd_sc_hd__decap_12
XFILLER_11_9 vssd1 vssd1 vccd1 vccd1 sky130_fd_sc_hd__fill_1
XFILLER_16_51 vssd1 vssd1 vccd1 vccd1 sky130_fd_sc_hd__decap_8
XFILLER_12_154 vssd1 vssd1 vccd1 vccd1 sky130_fd_sc_hd__fill_1
XFILLER_12_132 vssd1 vssd1 vccd1 vccd1 sky130_fd_sc_hd__fill_1
XFILLER_5_106 vssd1 vssd1 vccd1 vccd1 sky130_fd_sc_hd__decap_6
XFILLER_23_19 vssd1 vssd1 vccd1 vccd1 sky130_fd_sc_hd__decap_6
XFILLER_4_54 vssd1 vssd1 vccd1 vccd1 sky130_fd_sc_hd__fill_2
XFILLER_4_150 vssd1 vssd1 vccd1 vccd1 sky130_fd_sc_hd__decap_4
X_181_ ring_osc_counter_out[4] ring_osc_counter_out[3] ring_osc_counter_out[2] _201_/A
+ vssd1 vssd1 vccd1 vccd1 _188_/B sky130_fd_sc_hd__and4_1
XFILLER_13_96 vssd1 vssd1 vccd1 vccd1 sky130_fd_sc_hd__fill_1
X_250_ _253_/A _253_/B vssd1 vssd1 vccd1 vccd1 _250_/Y sky130_fd_sc_hd__nor2_1
X_164_ _195_/A vssd1 vssd1 vccd1 vccd1 _164_/Y sky130_fd_sc_hd__inv_2
Xtristate_sum_outputs\[4\]._0_ _275_/A input51/X vssd1 vssd1 vccd1 vccd1 ring_osc_out
+ sky130_fd_sc_hd__ebufn_8
XFILLER_1_99 vssd1 vssd1 vccd1 vccd1 sky130_fd_sc_hd__decap_4
XFILLER_1_55 vssd1 vssd1 vccd1 vccd1 sky130_fd_sc_hd__fill_1
XFILLER_1_33 vssd1 vssd1 vccd1 vccd1 sky130_fd_sc_hd__decap_4
X_233_ _229_/B _233_/B vssd1 vssd1 vccd1 vccd1 _234_/B sky130_fd_sc_hd__and2b_1
XFILLER_25_108 vssd1 vssd1 vccd1 vccd1 sky130_fd_sc_hd__decap_4
X_216_ _260_/Q _210_/Y _222_/A _223_/S vssd1 vssd1 vccd1 vccd1 _216_/X sky130_fd_sc_hd__a31o_1
X_147_ _246_/A _153_/B _153_/D _136_/Y vssd1 vssd1 vccd1 vccd1 _150_/A sky130_fd_sc_hd__a31o_1
XFILLER_21_96 vssd1 vssd1 vccd1 vccd1 sky130_fd_sc_hd__decap_12
XFILLER_21_85 vssd1 vssd1 vccd1 vccd1 sky130_fd_sc_hd__fill_1
XPHY_5 vssd1 vssd1 vccd1 vccd1 sky130_fd_sc_hd__decap_3
XFILLER_7_98 vssd1 vssd1 vccd1 vccd1 sky130_fd_sc_hd__decap_6
XFILLER_16_96 vssd1 vssd1 vccd1 vccd1 sky130_fd_sc_hd__decap_4
XFILLER_16_85 vssd1 vssd1 vccd1 vccd1 sky130_fd_sc_hd__decap_4
Xinverters\[14\]._0_ inverters\[14\]._0_/A vssd1 vssd1 vccd1 vccd1 inverters\[15\]._0_/A
+ sky130_fd_sc_hd__inv_2
XFILLER_5_129 vssd1 vssd1 vccd1 vccd1 sky130_fd_sc_hd__decap_4
Xtristate_ring_inputs\[2\]._0_ _242_/Y input19/X vssd1 vssd1 vccd1 vccd1 _253_/B sky130_fd_sc_hd__ebufn_2
XFILLER_4_77 vssd1 vssd1 vccd1 vccd1 sky130_fd_sc_hd__decap_6
X_180_ _261_/Q _178_/B _178_/C ring_osc_counter_out[0] ring_osc_counter_out[1] vssd1
+ vssd1 vccd1 vccd1 _201_/A sky130_fd_sc_hd__o311a_2
XFILLER_13_31 vssd1 vssd1 vccd1 vccd1 sky130_fd_sc_hd__decap_4
XFILLER_24_85 vssd1 vssd1 vccd1 vccd1 sky130_fd_sc_hd__decap_12
X_163_ _163_/A vssd1 vssd1 vccd1 vccd1 _163_/Y sky130_fd_sc_hd__inv_2
X_232_ _232_/A vssd1 vssd1 vccd1 vccd1 _256_/D sky130_fd_sc_hd__clkbuf_1
XFILLER_10_76 vssd1 vssd1 vccd1 vccd1 sky130_fd_sc_hd__decap_8
XFILLER_10_98 vssd1 vssd1 vccd1 vccd1 sky130_fd_sc_hd__decap_4
X_215_ _210_/Y _222_/A _260_/Q vssd1 vssd1 vccd1 vccd1 _215_/Y sky130_fd_sc_hd__a21oi_1
XFILLER_18_150 vssd1 vssd1 vccd1 vccd1 sky130_fd_sc_hd__decap_4
X_146_ _146_/A _146_/B vssd1 vssd1 vccd1 vccd1 _277_/A sky130_fd_sc_hd__xnor2_1
Xtristate_sum_outputs\[3\]._0_ _274_/A input50/X vssd1 vssd1 vccd1 vccd1 ring_osc_out
+ sky130_fd_sc_hd__ebufn_8
XPHY_6 vssd1 vssd1 vccd1 vccd1 sky130_fd_sc_hd__decap_3
X_129_ _129_/A _129_/B vssd1 vssd1 vccd1 vccd1 _130_/A sky130_fd_sc_hd__and2_1
XFILLER_12_112 vssd1 vssd1 vccd1 vccd1 sky130_fd_sc_hd__decap_4
XFILLER_8_127 vssd1 vssd1 vccd1 vccd1 sky130_fd_sc_hd__decap_4
XFILLER_4_89 vssd1 vssd1 vccd1 vccd1 sky130_fd_sc_hd__fill_1
XFILLER_13_76 vssd1 vssd1 vccd1 vccd1 sky130_fd_sc_hd__decap_12
XFILLER_13_65 vssd1 vssd1 vccd1 vccd1 sky130_fd_sc_hd__fill_1
XFILLER_1_111 vssd1 vssd1 vccd1 vccd1 sky130_fd_sc_hd__fill_1
Xinverters\[13\]._0_ inverters\[13\]._0_/A vssd1 vssd1 vccd1 vccd1 inverters\[14\]._0_/A
+ sky130_fd_sc_hd__inv_2
XFILLER_8_3 vssd1 vssd1 vccd1 vccd1 sky130_fd_sc_hd__decap_8
Xtristate_ext_inputs\[7\]._0_ input8/X input16/X vssd1 vssd1 vccd1 vccd1 _141_/B sky130_fd_sc_hd__ebufn_2
Xtristate_ring_inputs\[1\]._0_ _242_/Y input18/X vssd1 vssd1 vccd1 vccd1 _248_/B sky130_fd_sc_hd__ebufn_4
XFILLER_24_97 vssd1 vssd1 vccd1 vccd1 sky130_fd_sc_hd__fill_2
X_162_ _163_/A vssd1 vssd1 vccd1 vccd1 _162_/Y sky130_fd_sc_hd__inv_2
X_231_ _230_/X _231_/A1 _238_/S vssd1 vssd1 vccd1 vccd1 _232_/A sky130_fd_sc_hd__mux2_1
XFILLER_1_68 vssd1 vssd1 vccd1 vccd1 sky130_fd_sc_hd__fill_1
XFILLER_19_31 vssd1 vssd1 vccd1 vccd1 sky130_fd_sc_hd__decap_4
XTAP_90 vssd1 vccd1 sky130_fd_sc_hd__tapvpwrvgnd_1
Xinput1 a_input[0] vssd1 vssd1 vccd1 vccd1 input1/X sky130_fd_sc_hd__clkbuf_1
XFILLER_10_55 vssd1 vssd1 vccd1 vccd1 sky130_fd_sc_hd__decap_4
XFILLER_10_88 vssd1 vssd1 vccd1 vccd1 sky130_fd_sc_hd__decap_6
X_214_ _258_/Q _214_/B _233_/B vssd1 vssd1 vccd1 vccd1 _222_/A sky130_fd_sc_hd__nor3b_2
X_145_ _145_/A _145_/B vssd1 vssd1 vccd1 vccd1 _146_/B sky130_fd_sc_hd__nand2_1
XFILLER_21_54 vssd1 vssd1 vccd1 vccd1 sky130_fd_sc_hd__fill_2
XFILLER_21_21 vssd1 vssd1 vccd1 vccd1 sky130_fd_sc_hd__fill_2
XFILLER_15_154 vssd1 vssd1 vccd1 vccd1 sky130_fd_sc_hd__fill_1
XPHY_7 vssd1 vssd1 vccd1 vccd1 sky130_fd_sc_hd__decap_3
X_128_ _128_/A _128_/B vssd1 vssd1 vccd1 vccd1 _129_/B sky130_fd_sc_hd__or2_1
XFILLER_12_124 vssd1 vssd1 vccd1 vccd1 sky130_fd_sc_hd__decap_8
Xtristate_sum_outputs\[2\]._0_ _273_/A input49/X vssd1 vssd1 vccd1 vccd1 ring_osc_out
+ sky130_fd_sc_hd__ebufn_8
XFILLER_4_46 vssd1 vssd1 vccd1 vccd1 sky130_fd_sc_hd__decap_8
XFILLER_13_88 vssd1 vssd1 vccd1 vccd1 sky130_fd_sc_hd__decap_8
XFILLER_24_76 vssd1 vssd1 vccd1 vccd1 sky130_fd_sc_hd__decap_8
XFILLER_24_32 vssd1 vssd1 vccd1 vccd1 sky130_fd_sc_hd__decap_12
X_161_ _163_/A vssd1 vssd1 vccd1 vccd1 _161_/Y sky130_fd_sc_hd__inv_2
Xcontrol2._0_ control2._0_/A input34/X vssd1 vssd1 vccd1 vccd1 ring_osc_out sky130_fd_sc_hd__ebufn_8
X_230_ _256_/Q _229_/X _226_/B vssd1 vssd1 vccd1 vccd1 _230_/X sky130_fd_sc_hd__a21bo_1
XFILLER_1_47 vssd1 vssd1 vccd1 vccd1 sky130_fd_sc_hd__decap_8
XTAP_91 vssd1 vccd1 sky130_fd_sc_hd__tapvpwrvgnd_1
Xinverters\[12\]._0_ inverters\[12\]._0_/A vssd1 vssd1 vccd1 vccd1 inverters\[13\]._0_/A
+ sky130_fd_sc_hd__inv_2
Xinput2 a_input[1] vssd1 vssd1 vccd1 vccd1 input2/X sky130_fd_sc_hd__clkbuf_1
XTAP_80 vssd1 vccd1 sky130_fd_sc_hd__tapvpwrvgnd_1
Xtristate_ext_inputs\[6\]._0_ input7/X input15/X vssd1 vssd1 vccd1 vccd1 _144_/B sky130_fd_sc_hd__ebufn_4
XFILLER_19_65 vssd1 vssd1 vccd1 vccd1 sky130_fd_sc_hd__decap_4
XFILLER_19_54 vssd1 vssd1 vccd1 vccd1 sky130_fd_sc_hd__fill_2
X_213_ _261_/Q _178_/B _178_/C _205_/A vssd1 vssd1 vccd1 vccd1 _233_/B sky130_fd_sc_hd__o31a_1
Xtristate_ring_inputs\[0\]._0_ _242_/Y input17/X vssd1 vssd1 vccd1 vccd1 _128_/B sky130_fd_sc_hd__ebufn_2
X_144_ _144_/A _144_/B vssd1 vssd1 vccd1 vccd1 _145_/B sky130_fd_sc_hd__or2_1
XFILLER_18_6 vssd1 vssd1 vccd1 vccd1 sky130_fd_sc_hd__decap_6
XFILLER_21_77 vssd1 vssd1 vccd1 vccd1 sky130_fd_sc_hd__decap_8
XFILLER_15_122 vssd1 vssd1 vccd1 vccd1 sky130_fd_sc_hd__decap_6
X_127_ _129_/A _127_/B vssd1 vssd1 vccd1 vccd1 _272_/A sky130_fd_sc_hd__xor2_2
XPHY_8 vssd1 vssd1 vccd1 vccd1 sky130_fd_sc_hd__decap_3
XFILLER_7_46 vssd1 vssd1 vccd1 vccd1 sky130_fd_sc_hd__fill_1
XFILLER_16_44 vssd1 vssd1 vccd1 vccd1 sky130_fd_sc_hd__decap_4
XFILLER_12_136 vssd1 vssd1 vccd1 vccd1 sky130_fd_sc_hd__decap_4
XFILLER_7_151 vssd1 vssd1 vccd1 vccd1 sky130_fd_sc_hd__decap_4