* NGSPICE file created from instrumented_adder.ext - technology: sky130A

* Black-box entry subcircuit for sky130_fd_sc_hd__fill_2 abstract view
.subckt sky130_fd_sc_hd__fill_2 VGND VNB VPB VPWR
.ends

* Black-box entry subcircuit for sky130_fd_sc_hd__dfrtp_4 abstract view
.subckt sky130_fd_sc_hd__dfrtp_4 CLK D RESET_B VGND VNB VPB VPWR Q
.ends

* Black-box entry subcircuit for sky130_fd_sc_hd__decap_4 abstract view
.subckt sky130_fd_sc_hd__decap_4 VGND VNB VPB VPWR
.ends

* Black-box entry subcircuit for sky130_fd_sc_hd__decap_8 abstract view
.subckt sky130_fd_sc_hd__decap_8 VGND VNB VPB VPWR
.ends

* Black-box entry subcircuit for sky130_fd_sc_hd__xor2_1 abstract view
.subckt sky130_fd_sc_hd__xor2_1 A B VGND VNB VPB VPWR X
.ends

* Black-box entry subcircuit for sky130_fd_sc_hd__decap_12 abstract view
.subckt sky130_fd_sc_hd__decap_12 VGND VNB VPB VPWR
.ends

* Black-box entry subcircuit for sky130_fd_sc_hd__and2_1 abstract view
.subckt sky130_fd_sc_hd__and2_1 A B VGND VNB VPB VPWR X
.ends

* Black-box entry subcircuit for sky130_fd_sc_hd__fill_1 abstract view
.subckt sky130_fd_sc_hd__fill_1 VGND VNB VPB VPWR
.ends

* Black-box entry subcircuit for sky130_fd_sc_hd__inv_2 abstract view
.subckt sky130_fd_sc_hd__inv_2 A VGND VNB VPB VPWR Y
.ends

* Black-box entry subcircuit for sky130_fd_sc_hd__tapvpwrvgnd_1 abstract view
.subckt sky130_fd_sc_hd__tapvpwrvgnd_1 VGND VPWR
.ends

* Black-box entry subcircuit for sky130_fd_sc_hd__decap_3 abstract view
.subckt sky130_fd_sc_hd__decap_3 VGND VNB VPB VPWR
.ends

* Black-box entry subcircuit for sky130_fd_sc_hd__and3_1 abstract view
.subckt sky130_fd_sc_hd__and3_1 A B C VGND VNB VPB VPWR X
.ends

* Black-box entry subcircuit for sky130_fd_sc_hd__decap_6 abstract view
.subckt sky130_fd_sc_hd__decap_6 VGND VNB VPB VPWR
.ends

* Black-box entry subcircuit for sky130_fd_sc_hd__buf_2 abstract view
.subckt sky130_fd_sc_hd__buf_2 A VGND VNB VPB VPWR X
.ends

* Black-box entry subcircuit for sky130_fd_sc_hd__nand2_1 abstract view
.subckt sky130_fd_sc_hd__nand2_1 A B VGND VNB VPB VPWR Y
.ends

* Black-box entry subcircuit for sky130_fd_sc_hd__o21ba_1 abstract view
.subckt sky130_fd_sc_hd__o21ba_1 A1 A2 B1_N VGND VNB VPB VPWR X
.ends

* Black-box entry subcircuit for sky130_fd_sc_hd__clkbuf_2 abstract view
.subckt sky130_fd_sc_hd__clkbuf_2 A VGND VNB VPB VPWR X
.ends

* Black-box entry subcircuit for sky130_fd_sc_hd__or2_1 abstract view
.subckt sky130_fd_sc_hd__or2_1 A B VGND VNB VPB VPWR X
.ends

* Black-box entry subcircuit for sky130_fd_sc_hd__ebufn_2 abstract view
.subckt sky130_fd_sc_hd__ebufn_2 A TE_B VGND VNB VPB VPWR Z
.ends

* Black-box entry subcircuit for sky130_fd_sc_hd__or4_2 abstract view
.subckt sky130_fd_sc_hd__or4_2 A B C D VGND VNB VPB VPWR X
.ends

* Black-box entry subcircuit for sky130_fd_sc_hd__nor2_1 abstract view
.subckt sky130_fd_sc_hd__nor2_1 A B VGND VNB VPB VPWR Y
.ends

* Black-box entry subcircuit for sky130_fd_sc_hd__ebufn_4 abstract view
.subckt sky130_fd_sc_hd__ebufn_4 A TE_B VGND VNB VPB VPWR Z
.ends

* Black-box entry subcircuit for sky130_fd_sc_hd__clkbuf_1 abstract view
.subckt sky130_fd_sc_hd__clkbuf_1 A VGND VNB VPB VPWR X
.ends

* Black-box entry subcircuit for sky130_fd_sc_hd__ebufn_8 abstract view
.subckt sky130_fd_sc_hd__ebufn_8 A TE_B VGND VNB VPB VPWR Z
.ends

* Black-box entry subcircuit for sky130_fd_sc_hd__nand2_4 abstract view
.subckt sky130_fd_sc_hd__nand2_4 A B VGND VNB VPB VPWR Y
.ends

* Black-box entry subcircuit for sky130_fd_sc_hd__mux2_1 abstract view
.subckt sky130_fd_sc_hd__mux2_1 A0 A1 S VGND VNB VPB VPWR X
.ends

* Black-box entry subcircuit for sky130_fd_sc_hd__xnor2_2 abstract view
.subckt sky130_fd_sc_hd__xnor2_2 A B VGND VNB VPB VPWR Y
.ends

* Black-box entry subcircuit for sky130_fd_sc_hd__clkbuf_16 abstract view
.subckt sky130_fd_sc_hd__clkbuf_16 A VGND VNB VPB VPWR X
.ends

* Black-box entry subcircuit for sky130_fd_sc_hd__o21ai_1 abstract view
.subckt sky130_fd_sc_hd__o21ai_1 A1 A2 B1 VGND VNB VPB VPWR Y
.ends

* Black-box entry subcircuit for sky130_fd_sc_hd__ebufn_1 abstract view
.subckt sky130_fd_sc_hd__ebufn_1 A TE_B VGND VNB VPB VPWR Z
.ends

* Black-box entry subcircuit for sky130_fd_sc_hd__o2bb2a_1 abstract view
.subckt sky130_fd_sc_hd__o2bb2a_1 A1_N A2_N B1 B2 VGND VNB VPB VPWR X
.ends

* Black-box entry subcircuit for sky130_fd_sc_hd__and2b_1 abstract view
.subckt sky130_fd_sc_hd__and2b_1 A_N B VGND VNB VPB VPWR X
.ends

* Black-box entry subcircuit for sky130_fd_sc_hd__o31ai_1 abstract view
.subckt sky130_fd_sc_hd__o31ai_1 A1 A2 A3 B1 VGND VNB VPB VPWR Y
.ends

* Black-box entry subcircuit for sky130_fd_sc_hd__o31a_1 abstract view
.subckt sky130_fd_sc_hd__o31a_1 A1 A2 A3 B1 VGND VNB VPB VPWR X
.ends

* Black-box entry subcircuit for sky130_fd_sc_hd__a21oi_1 abstract view
.subckt sky130_fd_sc_hd__a21oi_1 A1 A2 B1 VGND VNB VPB VPWR Y
.ends

* Black-box entry subcircuit for sky130_fd_sc_hd__a21o_1 abstract view
.subckt sky130_fd_sc_hd__a21o_1 A1 A2 B1 VGND VNB VPB VPWR X
.ends

* Black-box entry subcircuit for sky130_fd_sc_hd__o221a_1 abstract view
.subckt sky130_fd_sc_hd__o221a_1 A1 A2 B1 B2 C1 VGND VNB VPB VPWR X
.ends

* Black-box entry subcircuit for sky130_fd_sc_hd__dfrtp_1 abstract view
.subckt sky130_fd_sc_hd__dfrtp_1 CLK D RESET_B VGND VNB VPB VPWR Q
.ends

* Black-box entry subcircuit for sky130_fd_sc_hd__dlymetal6s2s_1 abstract view
.subckt sky130_fd_sc_hd__dlymetal6s2s_1 A VGND VNB VPB VPWR X
.ends

* Black-box entry subcircuit for sky130_fd_sc_hd__o41a_1 abstract view
.subckt sky130_fd_sc_hd__o41a_1 A1 A2 A3 A4 B1 VGND VNB VPB VPWR X
.ends

* Black-box entry subcircuit for sky130_fd_sc_hd__a22o_1 abstract view
.subckt sky130_fd_sc_hd__a22o_1 A1 A2 B1 B2 VGND VNB VPB VPWR X
.ends

* Black-box entry subcircuit for sky130_fd_sc_hd__o21a_1 abstract view
.subckt sky130_fd_sc_hd__o21a_1 A1 A2 B1 VGND VNB VPB VPWR X
.ends

* Black-box entry subcircuit for sky130_fd_sc_hd__clkinv_2 abstract view
.subckt sky130_fd_sc_hd__clkinv_2 A VGND VNB VPB VPWR Y
.ends

* Black-box entry subcircuit for sky130_fd_sc_hd__xnor2_1 abstract view
.subckt sky130_fd_sc_hd__xnor2_1 A B VGND VNB VPB VPWR Y
.ends

* Black-box entry subcircuit for sky130_fd_sc_hd__nand3_1 abstract view
.subckt sky130_fd_sc_hd__nand3_1 A B C VGND VNB VPB VPWR Y
.ends

* Black-box entry subcircuit for sky130_fd_sc_hd__and4_1 abstract view
.subckt sky130_fd_sc_hd__and4_1 A B C D VGND VNB VPB VPWR X
.ends

* Black-box entry subcircuit for sky130_fd_sc_hd__xor2_2 abstract view
.subckt sky130_fd_sc_hd__xor2_2 A B VGND VNB VPB VPWR X
.ends

* Black-box entry subcircuit for sky130_fd_sc_hd__a31o_1 abstract view
.subckt sky130_fd_sc_hd__a31o_1 A1 A2 A3 B1 VGND VNB VPB VPWR X
.ends

* Black-box entry subcircuit for sky130_fd_sc_hd__a2bb2o_1 abstract view
.subckt sky130_fd_sc_hd__a2bb2o_1 A1_N A2_N B1 B2 VGND VNB VPB VPWR X
.ends

* Black-box entry subcircuit for sky130_fd_sc_hd__a31o_2 abstract view
.subckt sky130_fd_sc_hd__a31o_2 A1 A2 A3 B1 VGND VNB VPB VPWR X
.ends

.subckt instrumented_adder a_input[0] a_input[1] a_input[2] a_input[3] a_input[4]
+ a_input[5] a_input[6] a_input[7] a_input_ext_bit_b[0] a_input_ext_bit_b[1] a_input_ext_bit_b[2]
+ a_input_ext_bit_b[3] a_input_ext_bit_b[4] a_input_ext_bit_b[5] a_input_ext_bit_b[6]
+ a_input_ext_bit_b[7] a_input_ring_bit_b[0] a_input_ring_bit_b[1] a_input_ring_bit_b[2]
+ a_input_ring_bit_b[3] a_input_ring_bit_b[4] a_input_ring_bit_b[5] a_input_ring_bit_b[6]
+ a_input_ring_bit_b[7] b_input[0] b_input[1] b_input[2] b_input[3] b_input[4] b_input[5]
+ b_input[6] b_input[7] bypass_b clk control_b counter_enable counter_load done extra_inverter
+ integration_time[0] integration_time[1] integration_time[2] integration_time[3]
+ integration_time[4] integration_time[5] integration_time[6] integration_time[7]
+ reset ring_osc_counter_out[0] ring_osc_counter_out[1] ring_osc_counter_out[2] ring_osc_counter_out[3]
+ ring_osc_counter_out[4] ring_osc_counter_out[5] ring_osc_counter_out[6] ring_osc_counter_out[7]
+ ring_osc_out s_output_bit_b[0] s_output_bit_b[1] s_output_bit_b[2] s_output_bit_b[3]
+ s_output_bit_b[4] s_output_bit_b[5] s_output_bit_b[6] s_output_bit_b[7] stop_b sum_out[0]
+ sum_out[1] sum_out[2] sum_out[3] sum_out[4] sum_out[5] sum_out[6] sum_out[7] vccd1
+ vssd1
XFILLER_26_96 vssd1 vssd1 vccd1 vccd1 sky130_fd_sc_hd__fill_2
X_294_ _246_/Y _294_/D _268_/Y vssd1 vssd1 vccd1 vccd1 ring_osc_counter_out[4] sky130_fd_sc_hd__dfrtp_4
XFILLER_13_155 vssd1 vssd1 vccd1 vccd1 sky130_fd_sc_hd__decap_4
XFILLER_3_45 vssd1 vssd1 vccd1 vccd1 sky130_fd_sc_hd__decap_4
XFILLER_12_76 vssd1 vssd1 vccd1 vccd1 sky130_fd_sc_hd__decap_8
XFILLER_6_129 vssd1 vssd1 vccd1 vccd1 sky130_fd_sc_hd__decap_4
XFILLER_10_136 vssd1 vssd1 vccd1 vccd1 sky130_fd_sc_hd__decap_4
X_277_ ring_osc_counter_out[2] _280_/A vssd1 vssd1 vccd1 vccd1 _292_/D sky130_fd_sc_hd__xor2_1
XFILLER_23_31 vssd1 vssd1 vccd1 vccd1 sky130_fd_sc_hd__decap_12
X_200_ _222_/A _222_/B vssd1 vssd1 vccd1 vccd1 _200_/X sky130_fd_sc_hd__and2_1
XFILLER_2_121 vssd1 vssd1 vccd1 vccd1 sky130_fd_sc_hd__fill_2
XFILLER_0_57 vssd1 vssd1 vccd1 vccd1 sky130_fd_sc_hd__decap_4
XFILLER_0_24 vssd1 vssd1 vccd1 vccd1 sky130_fd_sc_hd__decap_4
XFILLER_9_22 vssd1 vssd1 vccd1 vccd1 sky130_fd_sc_hd__fill_1
XFILLER_9_77 vssd1 vssd1 vccd1 vccd1 sky130_fd_sc_hd__decap_12
XFILLER_20_65 vssd1 vssd1 vccd1 vccd1 sky130_fd_sc_hd__decap_4
XFILLER_13_3 vssd1 vssd1 vccd1 vccd1 sky130_fd_sc_hd__decap_8
XFILLER_6_23 vssd1 vssd1 vccd1 vccd1 sky130_fd_sc_hd__decap_4
XFILLER_15_43 vssd1 vssd1 vccd1 vccd1 sky130_fd_sc_hd__decap_12
Xinverters\[4\]._0_ inverters\[4\]._0_/A vssd1 vssd1 vccd1 vccd1 inverters\[5\]._0_/A
+ sky130_fd_sc_hd__inv_2
XFILLER_16_120 vssd1 vssd1 vccd1 vccd1 sky130_fd_sc_hd__decap_8
XTAP_123 vssd1 vccd1 sky130_fd_sc_hd__tapvpwrvgnd_1
XTAP_112 vssd1 vccd1 sky130_fd_sc_hd__tapvpwrvgnd_1
XTAP_101 vssd1 vccd1 sky130_fd_sc_hd__tapvpwrvgnd_1
X_293_ _245_/Y _293_/D _271_/Y vssd1 vssd1 vccd1 vccd1 ring_osc_counter_out[3] sky130_fd_sc_hd__dfrtp_4
XFILLER_13_101 vssd1 vssd1 vccd1 vccd1 sky130_fd_sc_hd__decap_8
XFILLER_3_57 vssd1 vssd1 vccd1 vccd1 sky130_fd_sc_hd__decap_3
X_276_ ring_osc_counter_out[1] ring_osc_counter_out[0] _276_/C vssd1 vssd1 vccd1 vccd1
+ _280_/A sky130_fd_sc_hd__and3_1
XFILLER_23_43 vssd1 vssd1 vccd1 vccd1 sky130_fd_sc_hd__decap_12
X_259_ ring_osc_counter_out[3] _259_/B _272_/B vssd1 vssd1 vccd1 vccd1 _269_/B sky130_fd_sc_hd__and3_1
XFILLER_2_155 vssd1 vssd1 vccd1 vccd1 sky130_fd_sc_hd__decap_4
XFILLER_0_69 vssd1 vssd1 vccd1 vccd1 sky130_fd_sc_hd__fill_1
XFILLER_9_89 vssd1 vssd1 vccd1 vccd1 sky130_fd_sc_hd__decap_3
XFILLER_18_98 vssd1 vssd1 vccd1 vccd1 sky130_fd_sc_hd__decap_4
XFILLER_18_43 vssd1 vssd1 vccd1 vccd1 sky130_fd_sc_hd__decap_4
XFILLER_20_22 vssd1 vssd1 vccd1 vccd1 sky130_fd_sc_hd__decap_6
XFILLER_6_46 vssd1 vssd1 vccd1 vccd1 sky130_fd_sc_hd__decap_6
XFILLER_6_57 vssd1 vssd1 vccd1 vccd1 sky130_fd_sc_hd__decap_4
XFILLER_25_110 vssd1 vssd1 vccd1 vccd1 sky130_fd_sc_hd__fill_2
XFILLER_15_55 vssd1 vssd1 vccd1 vccd1 sky130_fd_sc_hd__fill_1
XTAP_124 vssd1 vccd1 sky130_fd_sc_hd__tapvpwrvgnd_1
XTAP_113 vssd1 vccd1 sky130_fd_sc_hd__tapvpwrvgnd_1
XFILLER_22_135 vssd1 vssd1 vccd1 vccd1 sky130_fd_sc_hd__decap_4
XFILLER_22_102 vssd1 vssd1 vccd1 vccd1 sky130_fd_sc_hd__decap_12
XTAP_102 vssd1 vccd1 sky130_fd_sc_hd__tapvpwrvgnd_1
XFILLER_26_32 vssd1 vssd1 vccd1 vccd1 sky130_fd_sc_hd__decap_12
XFILLER_26_21 vssd1 vssd1 vccd1 vccd1 sky130_fd_sc_hd__decap_6
X_292_ _244_/Y _292_/D _275_/Y vssd1 vssd1 vccd1 vccd1 ring_osc_counter_out[2] sky130_fd_sc_hd__dfrtp_4
XFILLER_13_113 vssd1 vssd1 vccd1 vccd1 sky130_fd_sc_hd__decap_4
XFILLER_3_69 vssd1 vssd1 vccd1 vccd1 sky130_fd_sc_hd__decap_4
Xinverters\[3\]._0_ inverters\[3\]._0_/A vssd1 vssd1 vccd1 vccd1 inverters\[4\]._0_/A
+ sky130_fd_sc_hd__inv_2
XFILLER_6_109 vssd1 vssd1 vccd1 vccd1 sky130_fd_sc_hd__decap_12
XFILLER_10_105 vssd1 vssd1 vccd1 vccd1 sky130_fd_sc_hd__decap_8
XFILLER_10_116 vssd1 vssd1 vccd1 vccd1 sky130_fd_sc_hd__decap_4
X_275_ _281_/A vssd1 vssd1 vccd1 vccd1 _275_/Y sky130_fd_sc_hd__inv_2
XFILLER_5_142 vssd1 vssd1 vccd1 vccd1 sky130_fd_sc_hd__decap_4
XFILLER_4_90 vssd1 vssd1 vccd1 vccd1 sky130_fd_sc_hd__decap_6
XFILLER_23_55 vssd1 vssd1 vccd1 vccd1 sky130_fd_sc_hd__fill_1
XFILLER_0_37 vssd1 vssd1 vccd1 vccd1 sky130_fd_sc_hd__decap_4
XFILLER_9_35 vssd1 vssd1 vccd1 vccd1 sky130_fd_sc_hd__decap_4
X_258_ ring_osc_counter_out[2] ring_osc_counter_out[1] ring_osc_counter_out[0] vssd1
+ vssd1 vccd1 vccd1 _272_/B sky130_fd_sc_hd__and3_1
X_189_ _224_/A _189_/B vssd1 vssd1 vccd1 vccd1 _190_/B sky130_fd_sc_hd__and2_1
XFILLER_9_57 vssd1 vssd1 vccd1 vccd1 sky130_fd_sc_hd__fill_1
XFILLER_20_12 vssd1 vssd1 vccd1 vccd1 sky130_fd_sc_hd__decap_4
XFILLER_25_155 vssd1 vssd1 vccd1 vccd1 sky130_fd_sc_hd__decap_4
XFILLER_16_111 vssd1 vssd1 vccd1 vccd1 sky130_fd_sc_hd__decap_4
XFILLER_15_67 vssd1 vssd1 vccd1 vccd1 sky130_fd_sc_hd__decap_8
XTAP_125 vssd1 vccd1 sky130_fd_sc_hd__tapvpwrvgnd_1
XTAP_114 vssd1 vccd1 sky130_fd_sc_hd__tapvpwrvgnd_1
XFILLER_22_158 vssd1 vssd1 vccd1 vccd1 sky130_fd_sc_hd__fill_1
XFILLER_22_147 vssd1 vssd1 vccd1 vccd1 sky130_fd_sc_hd__decap_4
XFILLER_22_114 vssd1 vssd1 vccd1 vccd1 sky130_fd_sc_hd__fill_1
XTAP_103 vssd1 vccd1 sky130_fd_sc_hd__tapvpwrvgnd_1
XFILLER_26_88 vssd1 vssd1 vccd1 vccd1 sky130_fd_sc_hd__decap_8
XFILLER_26_44 vssd1 vssd1 vccd1 vccd1 sky130_fd_sc_hd__fill_1
X_291_ _243_/Y _291_/D _278_/Y vssd1 vssd1 vccd1 vccd1 ring_osc_counter_out[1] sky130_fd_sc_hd__dfrtp_4
XFILLER_12_68 vssd1 vssd1 vccd1 vccd1 sky130_fd_sc_hd__decap_4
X_274_ _274_/A vssd1 vssd1 vccd1 vccd1 _281_/A sky130_fd_sc_hd__buf_2
XFILLER_2_113 vssd1 vssd1 vccd1 vccd1 sky130_fd_sc_hd__decap_8
X_257_ _276_/C vssd1 vssd1 vccd1 vccd1 done sky130_fd_sc_hd__inv_2
Xinverters\[2\]._0_ inverters\[2\]._0_/A vssd1 vssd1 vccd1 vccd1 inverters\[3\]._0_/A
+ sky130_fd_sc_hd__inv_2
X_188_ _188_/A _188_/B vssd1 vssd1 vccd1 vccd1 _189_/B sky130_fd_sc_hd__nand2_1
XFILLER_15_9 vssd1 vssd1 vccd1 vccd1 sky130_fd_sc_hd__fill_1
XFILLER_6_15 vssd1 vssd1 vccd1 vccd1 sky130_fd_sc_hd__decap_4
XFILLER_6_37 vssd1 vssd1 vccd1 vccd1 sky130_fd_sc_hd__fill_2
XFILLER_19_131 vssd1 vssd1 vccd1 vccd1 sky130_fd_sc_hd__decap_4
XFILLER_20_7 vssd1 vssd1 vccd1 vccd1 sky130_fd_sc_hd__fill_1
XTAP_115 vssd1 vccd1 sky130_fd_sc_hd__tapvpwrvgnd_1
XTAP_104 vssd1 vccd1 sky130_fd_sc_hd__tapvpwrvgnd_1
XFILLER_11_3 vssd1 vssd1 vccd1 vccd1 sky130_fd_sc_hd__decap_12
X_290_ _242_/Y _290_/D _281_/Y vssd1 vssd1 vccd1 vccd1 ring_osc_counter_out[0] sky130_fd_sc_hd__dfrtp_4
XFILLER_9_108 vssd1 vssd1 vccd1 vccd1 sky130_fd_sc_hd__decap_4
XFILLER_12_36 vssd1 vssd1 vccd1 vccd1 sky130_fd_sc_hd__decap_12
XFILLER_8_130 vssd1 vssd1 vccd1 vccd1 sky130_fd_sc_hd__decap_8
XFILLER_8_141 vssd1 vssd1 vccd1 vccd1 sky130_fd_sc_hd__decap_3
XFILLER_10_129 vssd1 vssd1 vccd1 vccd1 sky130_fd_sc_hd__decap_4
X_273_ ring_osc_counter_out[3] _272_/X _269_/B vssd1 vssd1 vccd1 vccd1 _293_/D sky130_fd_sc_hd__o21ba_1
XFILLER_5_155 vssd1 vssd1 vccd1 vccd1 sky130_fd_sc_hd__decap_4
XFILLER_23_79 vssd1 vssd1 vccd1 vccd1 sky130_fd_sc_hd__decap_8
XFILLER_2_136 vssd1 vssd1 vccd1 vccd1 sky130_fd_sc_hd__decap_4
X_256_ _259_/B vssd1 vssd1 vccd1 vccd1 _276_/C sky130_fd_sc_hd__clkbuf_2
X_187_ _188_/A _188_/B vssd1 vssd1 vccd1 vccd1 _224_/A sky130_fd_sc_hd__or2_1
XFILLER_18_24 vssd1 vssd1 vccd1 vccd1 sky130_fd_sc_hd__decap_4
XFILLER_18_13 vssd1 vssd1 vccd1 vccd1 sky130_fd_sc_hd__decap_6
X_239_ _240_/A vssd1 vssd1 vccd1 vccd1 _239_/Y sky130_fd_sc_hd__inv_2
Xinverters\[1\]._0_ inverters\[1\]._0_/A vssd1 vssd1 vccd1 vccd1 inverters\[2\]._0_/A
+ sky130_fd_sc_hd__inv_2
XFILLER_20_36 vssd1 vssd1 vccd1 vccd1 sky130_fd_sc_hd__decap_6
Xinverters\[19\]._0_ inverters\[19\]._0_/A vssd1 vssd1 vccd1 vccd1 inverters\[20\]._0_/A
+ sky130_fd_sc_hd__inv_2
XFILLER_6_27 vssd1 vssd1 vccd1 vccd1 sky130_fd_sc_hd__fill_1
XFILLER_25_113 vssd1 vssd1 vccd1 vccd1 sky130_fd_sc_hd__fill_1
XFILLER_25_102 vssd1 vssd1 vccd1 vccd1 sky130_fd_sc_hd__decap_8
Xtristate_ring_inputs\[7\]._0_ _184_/Y input24/X vssd1 vssd1 vccd1 vccd1 _231_/B sky130_fd_sc_hd__ebufn_2
XTAP_116 vssd1 vccd1 sky130_fd_sc_hd__tapvpwrvgnd_1
XTAP_105 vssd1 vccd1 sky130_fd_sc_hd__tapvpwrvgnd_1
XFILLER_16_102 vssd1 vssd1 vccd1 vccd1 sky130_fd_sc_hd__decap_4
XFILLER_7_81 vssd1 vssd1 vccd1 vccd1 sky130_fd_sc_hd__decap_3
XFILLER_26_57 vssd1 vssd1 vccd1 vccd1 sky130_fd_sc_hd__fill_2
XFILLER_26_13 vssd1 vssd1 vccd1 vccd1 sky130_fd_sc_hd__decap_4
XFILLER_8_153 vssd1 vssd1 vccd1 vccd1 sky130_fd_sc_hd__decap_6
X_272_ _276_/C _272_/B vssd1 vssd1 vccd1 vccd1 _272_/X sky130_fd_sc_hd__and2_1
XFILLER_5_101 vssd1 vssd1 vccd1 vccd1 sky130_fd_sc_hd__decap_4
XFILLER_2_104 vssd1 vssd1 vccd1 vccd1 sky130_fd_sc_hd__decap_4
X_255_ _289_/Q _288_/Q _255_/C _255_/D vssd1 vssd1 vccd1 vccd1 _259_/B sky130_fd_sc_hd__or4_2
XFILLER_3_6 vssd1 vssd1 vccd1 vccd1 sky130_fd_sc_hd__decap_4
X_186_ _191_/A _191_/B vssd1 vssd1 vccd1 vccd1 _192_/A sky130_fd_sc_hd__nand2_1
XFILLER_9_27 vssd1 vssd1 vccd1 vccd1 sky130_fd_sc_hd__decap_4
XFILLER_18_36 vssd1 vssd1 vccd1 vccd1 sky130_fd_sc_hd__decap_4
X_238_ _240_/A vssd1 vssd1 vccd1 vccd1 _238_/Y sky130_fd_sc_hd__inv_2
XFILLER_1_61 vssd1 vssd1 vccd1 vccd1 sky130_fd_sc_hd__decap_4
X_169_ _283_/Q _282_/Q vssd1 vssd1 vccd1 vccd1 _170_/B sky130_fd_sc_hd__nor2_1
XFILLER_19_155 vssd1 vssd1 vccd1 vccd1 sky130_fd_sc_hd__decap_4
XFILLER_21_80 vssd1 vssd1 vccd1 vccd1 sky130_fd_sc_hd__decap_3
XFILLER_16_158 vssd1 vssd1 vccd1 vccd1 sky130_fd_sc_hd__fill_1
XFILLER_16_136 vssd1 vssd1 vccd1 vccd1 sky130_fd_sc_hd__decap_4
XTAP_117 vssd1 vccd1 sky130_fd_sc_hd__tapvpwrvgnd_1
XFILLER_22_139 vssd1 vssd1 vccd1 vccd1 sky130_fd_sc_hd__fill_1
XFILLER_22_128 vssd1 vssd1 vccd1 vccd1 sky130_fd_sc_hd__decap_4
Xinverters\[0\]._0_ _185_/X vssd1 vssd1 vccd1 vccd1 inverters\[1\]._0_/A sky130_fd_sc_hd__inv_2
XTAP_106 vssd1 vccd1 sky130_fd_sc_hd__tapvpwrvgnd_1
XPHY_0 vssd1 vssd1 vccd1 vccd1 sky130_fd_sc_hd__decap_3
Xinverters\[18\]._0_ inverters\[18\]._0_/A vssd1 vssd1 vccd1 vccd1 inverters\[19\]._0_/A
+ sky130_fd_sc_hd__inv_2
XFILLER_26_69 vssd1 vssd1 vccd1 vccd1 sky130_fd_sc_hd__decap_12
XFILLER_13_128 vssd1 vssd1 vccd1 vccd1 sky130_fd_sc_hd__decap_6
Xtristate_ring_inputs\[6\]._0_ _184_/Y input23/X vssd1 vssd1 vccd1 vccd1 _228_/B sky130_fd_sc_hd__ebufn_4
XFILLER_12_27 vssd1 vssd1 vccd1 vccd1 sky130_fd_sc_hd__fill_1
X_271_ _271_/A vssd1 vssd1 vccd1 vccd1 _271_/Y sky130_fd_sc_hd__inv_2
XFILLER_5_113 vssd1 vssd1 vccd1 vccd1 sky130_fd_sc_hd__fill_2
XFILLER_5_124 vssd1 vssd1 vccd1 vccd1 sky130_fd_sc_hd__fill_1
XFILLER_4_83 vssd1 vssd1 vccd1 vccd1 sky130_fd_sc_hd__fill_1
X_185_ ring_osc_out _185_/B vssd1 vssd1 vccd1 vccd1 _185_/X sky130_fd_sc_hd__xor2_1
X_254_ _287_/Q _286_/Q vssd1 vssd1 vccd1 vccd1 _255_/D sky130_fd_sc_hd__or2_1
XFILLER_13_81 vssd1 vssd1 vccd1 vccd1 sky130_fd_sc_hd__decap_4
X_306_ _306_/A vssd1 vssd1 vccd1 vccd1 sum_out[7] sky130_fd_sc_hd__buf_2
X_237_ _240_/A vssd1 vssd1 vccd1 vccd1 _237_/Y sky130_fd_sc_hd__inv_2
X_168_ _168_/A vssd1 vssd1 vccd1 vccd1 _285_/D sky130_fd_sc_hd__clkbuf_1
XFILLER_1_40 vssd1 vssd1 vccd1 vccd1 sky130_fd_sc_hd__decap_8
Xtristate_sum_outputs\[7\]._0_ _306_/A input54/X vssd1 vssd1 vccd1 vccd1 ring_osc_out
+ sky130_fd_sc_hd__ebufn_8
XFILLER_6_29 vssd1 vssd1 vccd1 vccd1 sky130_fd_sc_hd__decap_8
XFILLER_10_60 vssd1 vssd1 vccd1 vccd1 sky130_fd_sc_hd__decap_12
XFILLER_25_126 vssd1 vssd1 vccd1 vccd1 sky130_fd_sc_hd__decap_6
XTAP_118 vssd1 vccd1 sky130_fd_sc_hd__tapvpwrvgnd_1
XTAP_107 vssd1 vccd1 sky130_fd_sc_hd__tapvpwrvgnd_1
XPHY_1 vssd1 vssd1 vccd1 vccd1 sky130_fd_sc_hd__decap_3
XFILLER_26_48 vssd1 vssd1 vccd1 vccd1 sky130_fd_sc_hd__decap_8
XFILLER_16_92 vssd1 vssd1 vccd1 vccd1 sky130_fd_sc_hd__fill_1
X_270_ _270_/A _270_/B vssd1 vssd1 vccd1 vccd1 _294_/D sky130_fd_sc_hd__nor2_1
Xinverters\[17\]._0_ inverters\[17\]._0_/A vssd1 vssd1 vccd1 vccd1 inverters\[18\]._0_/A
+ sky130_fd_sc_hd__inv_2
Xtristate_ring_inputs\[5\]._0_ _184_/Y input22/X vssd1 vssd1 vccd1 vccd1 _210_/B sky130_fd_sc_hd__ebufn_4
XFILLER_9_18 vssd1 vssd1 vccd1 vccd1 sky130_fd_sc_hd__decap_4
XFILLER_13_93 vssd1 vssd1 vccd1 vccd1 sky130_fd_sc_hd__decap_4
X_253_ _285_/Q _284_/Q _283_/Q _282_/Q vssd1 vssd1 vccd1 vccd1 _255_/C sky130_fd_sc_hd__or4_2
X_184_ _184_/A _184_/B vssd1 vssd1 vccd1 vccd1 _184_/Y sky130_fd_sc_hd__nand2_4
X_305_ _305_/A vssd1 vssd1 vccd1 vccd1 sum_out[6] sky130_fd_sc_hd__buf_2
X_236_ _240_/A vssd1 vssd1 vccd1 vccd1 _236_/Y sky130_fd_sc_hd__inv_2
X_167_ _166_/X _285_/Q _172_/S vssd1 vssd1 vccd1 vccd1 _168_/A sky130_fd_sc_hd__mux2_1
XFILLER_1_52 vssd1 vssd1 vccd1 vccd1 sky130_fd_sc_hd__decap_4
XFILLER_10_72 vssd1 vssd1 vccd1 vccd1 sky130_fd_sc_hd__decap_12
X_219_ _219_/A _219_/B vssd1 vssd1 vccd1 vccd1 _303_/A sky130_fd_sc_hd__xnor2_2
XTAP_119 vssd1 vccd1 sky130_fd_sc_hd__tapvpwrvgnd_1
XFILLER_22_119 vssd1 vssd1 vccd1 vccd1 sky130_fd_sc_hd__decap_4
XTAP_108 vssd1 vccd1 sky130_fd_sc_hd__tapvpwrvgnd_1
Xclkbuf_0_clk clk vssd1 vssd1 vccd1 vccd1 clkbuf_0_clk/X sky130_fd_sc_hd__clkbuf_16
XPHY_2 vssd1 vssd1 vccd1 vccd1 sky130_fd_sc_hd__decap_3
XFILLER_26_27 vssd1 vssd1 vccd1 vccd1 sky130_fd_sc_hd__fill_1
XFILLER_21_130 vssd1 vssd1 vccd1 vccd1 sky130_fd_sc_hd__decap_4
XFILLER_7_73 vssd1 vssd1 vccd1 vccd1 sky130_fd_sc_hd__decap_8
Xtristate_sum_outputs\[6\]._0_ _305_/A input53/X vssd1 vssd1 vccd1 vccd1 ring_osc_out
+ sky130_fd_sc_hd__ebufn_8
XFILLER_4_85 vssd1 vssd1 vccd1 vccd1 sky130_fd_sc_hd__fill_2
XFILLER_4_96 vssd1 vssd1 vccd1 vccd1 sky130_fd_sc_hd__fill_1
X_183_ _245_/A vssd1 vssd1 vccd1 vccd1 _298_/D sky130_fd_sc_hd__inv_2
X_252_ _271_/A vssd1 vssd1 vccd1 vccd1 _252_/Y sky130_fd_sc_hd__inv_2
XFILLER_24_82 vssd1 vssd1 vccd1 vccd1 sky130_fd_sc_hd__fill_2
X_235_ _274_/A vssd1 vssd1 vccd1 vccd1 _240_/A sky130_fd_sc_hd__buf_2
XFILLER_1_6 vssd1 vssd1 vccd1 vccd1 sky130_fd_sc_hd__decap_6
Xinverters\[16\]._0_ inverters\[16\]._0_/A vssd1 vssd1 vccd1 vccd1 inverters\[17\]._0_/A
+ sky130_fd_sc_hd__inv_2
X_304_ _304_/A vssd1 vssd1 vccd1 vccd1 sum_out[5] sky130_fd_sc_hd__buf_2
X_166_ _166_/A0 _165_/Y _180_/S vssd1 vssd1 vccd1 vccd1 _166_/X sky130_fd_sc_hd__mux2_1
XFILLER_1_97 vssd1 vssd1 vccd1 vccd1 sky130_fd_sc_hd__decap_4
XFILLER_1_86 vssd1 vssd1 vccd1 vccd1 sky130_fd_sc_hd__decap_4
Xtristate_ring_inputs\[4\]._0_ _184_/Y input21/X vssd1 vssd1 vccd1 vccd1 _213_/B sky130_fd_sc_hd__ebufn_2
XFILLER_19_60 vssd1 vssd1 vccd1 vccd1 sky130_fd_sc_hd__decap_4
X_149_ _149_/A _259_/B vssd1 vssd1 vccd1 vccd1 _179_/B sky130_fd_sc_hd__and2_1
X_218_ _197_/X _221_/A _220_/B vssd1 vssd1 vccd1 vccd1 _219_/B sky130_fd_sc_hd__o21ai_1
XFILLER_25_117 vssd1 vssd1 vccd1 vccd1 sky130_fd_sc_hd__decap_4
Xbypass1._0_ _184_/Y input33/X vssd1 vssd1 vccd1 vccd1 bypass2._0_/A sky130_fd_sc_hd__ebufn_1
XFILLER_21_72 vssd1 vssd1 vccd1 vccd1 sky130_fd_sc_hd__decap_8
XTAP_109 vssd1 vccd1 sky130_fd_sc_hd__tapvpwrvgnd_1
XFILLER_16_128 vssd1 vssd1 vccd1 vccd1 sky130_fd_sc_hd__fill_1
XFILLER_13_109 vssd1 vssd1 vccd1 vccd1 sky130_fd_sc_hd__decap_3
XPHY_3 vssd1 vssd1 vccd1 vccd1 sky130_fd_sc_hd__decap_3
XFILLER_7_52 vssd1 vssd1 vccd1 vccd1 sky130_fd_sc_hd__decap_4
XFILLER_16_83 vssd1 vssd1 vccd1 vccd1 sky130_fd_sc_hd__fill_1
XFILLER_12_153 vssd1 vssd1 vccd1 vccd1 sky130_fd_sc_hd__decap_6
XFILLER_12_19 vssd1 vssd1 vccd1 vccd1 sky130_fd_sc_hd__decap_8
XFILLER_4_42 vssd1 vssd1 vccd1 vccd1 sky130_fd_sc_hd__decap_8
Xtristate_sum_outputs\[5\]._0_ _304_/A input52/X vssd1 vssd1 vccd1 vccd1 ring_osc_out
+ sky130_fd_sc_hd__ebufn_8
XFILLER_4_75 vssd1 vssd1 vccd1 vccd1 sky130_fd_sc_hd__decap_8
X_182_ _298_/Q vssd1 vssd1 vccd1 vccd1 _245_/A sky130_fd_sc_hd__buf_2
X_251_ _274_/A vssd1 vssd1 vccd1 vccd1 _271_/A sky130_fd_sc_hd__buf_2
XFILLER_1_130 vssd1 vssd1 vccd1 vccd1 sky130_fd_sc_hd__decap_4
X_234_ _281_/A vssd1 vssd1 vccd1 vccd1 _234_/Y sky130_fd_sc_hd__inv_2
X_165_ _165_/A _165_/B vssd1 vssd1 vccd1 vccd1 _165_/Y sky130_fd_sc_hd__nand2_1
X_303_ _303_/A vssd1 vssd1 vccd1 vccd1 sum_out[4] sky130_fd_sc_hd__buf_2
X_148_ _146_/Y _147_/X _180_/S _148_/B2 vssd1 vssd1 vccd1 vccd1 _148_/X sky130_fd_sc_hd__o2bb2a_1
X_217_ _213_/Y _217_/B vssd1 vssd1 vccd1 vccd1 _219_/A sky130_fd_sc_hd__and2b_1
Xinverters\[15\]._0_ inverters\[15\]._0_/A vssd1 vssd1 vccd1 vccd1 inverters\[16\]._0_/A
+ sky130_fd_sc_hd__inv_2
XFILLER_21_62 vssd1 vssd1 vccd1 vccd1 sky130_fd_sc_hd__decap_6
XFILLER_15_151 vssd1 vssd1 vccd1 vccd1 sky130_fd_sc_hd__fill_1
XPHY_4 vssd1 vssd1 vccd1 vccd1 sky130_fd_sc_hd__decap_3
Xtristate_ring_inputs\[3\]._0_ _184_/Y input20/X vssd1 vssd1 vccd1 vccd1 _212_/B sky130_fd_sc_hd__ebufn_2
XFILLER_16_62 vssd1 vssd1 vccd1 vccd1 sky130_fd_sc_hd__decap_4
XFILLER_16_40 vssd1 vssd1 vccd1 vccd1 sky130_fd_sc_hd__fill_2
XFILLER_5_128 vssd1 vssd1 vccd1 vccd1 sky130_fd_sc_hd__decap_4
XFILLER_23_19 vssd1 vssd1 vccd1 vccd1 sky130_fd_sc_hd__decap_12
XFILLER_4_150 vssd1 vssd1 vccd1 vccd1 sky130_fd_sc_hd__decap_8
X_181_ _181_/A vssd1 vssd1 vccd1 vccd1 _282_/D sky130_fd_sc_hd__clkbuf_1
X_250_ _274_/A vssd1 vssd1 vccd1 vccd1 _250_/Y sky130_fd_sc_hd__inv_2
X_302_ _302_/A vssd1 vssd1 vccd1 vccd1 sum_out[3] sky130_fd_sc_hd__buf_2
X_233_ _281_/A vssd1 vssd1 vccd1 vccd1 _233_/Y sky130_fd_sc_hd__inv_2
X_164_ _284_/Q _283_/Q _282_/Q _285_/Q vssd1 vssd1 vccd1 vccd1 _165_/B sky130_fd_sc_hd__o31ai_1
Xtristate_sum_outputs\[4\]._0_ _303_/A input51/X vssd1 vssd1 vccd1 vccd1 ring_osc_out
+ sky130_fd_sc_hd__ebufn_8
XFILLER_1_33 vssd1 vssd1 vccd1 vccd1 sky130_fd_sc_hd__decap_4
XFILLER_19_138 vssd1 vssd1 vccd1 vccd1 sky130_fd_sc_hd__decap_4
XFILLER_19_116 vssd1 vssd1 vccd1 vccd1 sky130_fd_sc_hd__decap_12
X_147_ _288_/Q _165_/A _255_/D _175_/A vssd1 vssd1 vccd1 vccd1 _147_/X sky130_fd_sc_hd__o31a_1
X_216_ _216_/A _216_/B vssd1 vssd1 vccd1 vccd1 _304_/A sky130_fd_sc_hd__xor2_1
XFILLER_24_141 vssd1 vssd1 vccd1 vccd1 sky130_fd_sc_hd__decap_4
XFILLER_21_52 vssd1 vssd1 vccd1 vccd1 sky130_fd_sc_hd__decap_4
XPHY_5 vssd1 vssd1 vccd1 vccd1 sky130_fd_sc_hd__decap_3
XFILLER_7_87 vssd1 vssd1 vccd1 vccd1 sky130_fd_sc_hd__decap_12
XFILLER_21_155 vssd1 vssd1 vccd1 vccd1 sky130_fd_sc_hd__decap_4
XFILLER_21_111 vssd1 vssd1 vccd1 vccd1 sky130_fd_sc_hd__fill_1
XFILLER_12_100 vssd1 vssd1 vccd1 vccd1 sky130_fd_sc_hd__fill_1
Xinverters\[14\]._0_ inverters\[14\]._0_/A vssd1 vssd1 vccd1 vccd1 inverters\[15\]._0_/A
+ sky130_fd_sc_hd__inv_2
XFILLER_5_118 vssd1 vssd1 vccd1 vccd1 sky130_fd_sc_hd__decap_6
Xtristate_ring_inputs\[2\]._0_ _184_/Y input19/X vssd1 vssd1 vccd1 vccd1 _222_/B sky130_fd_sc_hd__ebufn_2
XFILLER_4_55 vssd1 vssd1 vccd1 vccd1 sky130_fd_sc_hd__decap_4
XFILLER_4_66 vssd1 vssd1 vccd1 vccd1 sky130_fd_sc_hd__decap_4
X_180_ _180_/A0 _179_/X _180_/S vssd1 vssd1 vccd1 vccd1 _181_/A sky130_fd_sc_hd__mux2_1
XFILLER_24_74 vssd1 vssd1 vccd1 vccd1 sky130_fd_sc_hd__decap_8
XFILLER_24_41 vssd1 vssd1 vccd1 vccd1 sky130_fd_sc_hd__fill_2
X_301_ _301_/A vssd1 vssd1 vccd1 vccd1 sum_out[2] sky130_fd_sc_hd__buf_2
X_163_ _163_/A vssd1 vssd1 vccd1 vccd1 _286_/D sky130_fd_sc_hd__clkbuf_1
X_232_ _232_/A _232_/B vssd1 vssd1 vccd1 vccd1 _306_/A sky130_fd_sc_hd__xnor2_2
XFILLER_19_41 vssd1 vssd1 vccd1 vccd1 sky130_fd_sc_hd__fill_1
XFILLER_10_10 vssd1 vssd1 vccd1 vccd1 sky130_fd_sc_hd__fill_1
XFILLER_10_32 vssd1 vssd1 vccd1 vccd1 sky130_fd_sc_hd__decap_12
X_146_ _165_/A _255_/D _288_/Q vssd1 vssd1 vccd1 vccd1 _146_/Y sky130_fd_sc_hd__o21ai_1
X_215_ _221_/A _203_/X _214_/Y vssd1 vssd1 vccd1 vccd1 _216_/B sky130_fd_sc_hd__a21oi_1
Xtristate_sum_outputs\[3\]._0_ _302_/A input50/X vssd1 vssd1 vccd1 vccd1 ring_osc_out
+ sky130_fd_sc_hd__ebufn_8
XFILLER_21_31 vssd1 vssd1 vccd1 vccd1 sky130_fd_sc_hd__decap_12
XPHY_6 vssd1 vssd1 vccd1 vccd1 sky130_fd_sc_hd__decap_3
XFILLER_7_11 vssd1 vssd1 vccd1 vccd1 sky130_fd_sc_hd__fill_2
XFILLER_7_22 vssd1 vssd1 vccd1 vccd1 sky130_fd_sc_hd__fill_1
XFILLER_7_66 vssd1 vssd1 vccd1 vccd1 sky130_fd_sc_hd__decap_4
XFILLER_21_123 vssd1 vssd1 vccd1 vccd1 sky130_fd_sc_hd__decap_4
XFILLER_7_99 vssd1 vssd1 vccd1 vccd1 sky130_fd_sc_hd__decap_6
XFILLER_12_145 vssd1 vssd1 vccd1 vccd1 sky130_fd_sc_hd__decap_4
XFILLER_8_138 vssd1 vssd1 vccd1 vccd1 sky130_fd_sc_hd__fill_2
XFILLER_5_108 vssd1 vssd1 vccd1 vccd1 sky130_fd_sc_hd__decap_4
XFILLER_13_54 vssd1 vssd1 vccd1 vccd1 sky130_fd_sc_hd__fill_2
XFILLER_1_155 vssd1 vssd1 vccd1 vccd1 sky130_fd_sc_hd__decap_4
Xinverters\[13\]._0_ inverters\[13\]._0_/A vssd1 vssd1 vccd1 vccd1 inverters\[14\]._0_/A
+ sky130_fd_sc_hd__inv_2
Xtristate_ext_inputs\[7\]._0_ input8/X input16/X vssd1 vssd1 vccd1 vccd1 _231_/B sky130_fd_sc_hd__ebufn_2
Xtristate_ring_inputs\[1\]._0_ _184_/Y input18/X vssd1 vssd1 vccd1 vccd1 _188_/B sky130_fd_sc_hd__ebufn_2
X_162_ _161_/X _286_/Q _172_/S vssd1 vssd1 vccd1 vccd1 _163_/A sky130_fd_sc_hd__mux2_1
X_231_ _231_/A _231_/B vssd1 vssd1 vccd1 vccd1 _232_/B sky130_fd_sc_hd__xor2_1
X_300_ _300_/A vssd1 vssd1 vccd1 vccd1 sum_out[1] sky130_fd_sc_hd__buf_2
XTAP_90 vssd1 vccd1 sky130_fd_sc_hd__tapvpwrvgnd_1
Xinput1 a_input[0] vssd1 vssd1 vccd1 vccd1 input1/X sky130_fd_sc_hd__clkbuf_1
XFILLER_10_44 vssd1 vssd1 vccd1 vccd1 sky130_fd_sc_hd__decap_12
XFILLER_18_151 vssd1 vssd1 vccd1 vccd1 sky130_fd_sc_hd__decap_8
X_145_ _145_/A vssd1 vssd1 vccd1 vccd1 _289_/D sky130_fd_sc_hd__clkbuf_1
X_214_ _220_/A _217_/B _213_/Y vssd1 vssd1 vccd1 vccd1 _214_/Y sky130_fd_sc_hd__a21oi_1
XFILLER_21_87 vssd1 vssd1 vccd1 vccd1 sky130_fd_sc_hd__decap_12
XFILLER_21_43 vssd1 vssd1 vccd1 vccd1 sky130_fd_sc_hd__decap_6
XPHY_7 vssd1 vssd1 vccd1 vccd1 sky130_fd_sc_hd__decap_3
XFILLER_21_113 vssd1 vssd1 vccd1 vccd1 sky130_fd_sc_hd__decap_6
XFILLER_16_32 vssd1 vssd1 vccd1 vccd1 sky130_fd_sc_hd__decap_8
XFILLER_16_21 vssd1 vssd1 vccd1 vccd1 sky130_fd_sc_hd__decap_6
XFILLER_8_117 vssd1 vssd1 vccd1 vccd1 sky130_fd_sc_hd__decap_4
Xtristate_sum_outputs\[2\]._0_ _301_/A input49/X vssd1 vssd1 vccd1 vccd1 ring_osc_out
+ sky130_fd_sc_hd__ebufn_8
XFILLER_4_13 vssd1 vssd1 vccd1 vccd1 sky130_fd_sc_hd__decap_12
XFILLER_13_66 vssd1 vssd1 vccd1 vccd1 sky130_fd_sc_hd__decap_6
XFILLER_24_21 vssd1 vssd1 vccd1 vccd1 sky130_fd_sc_hd__decap_6
X_161_ _150_/A _161_/A2 _160_/Y vssd1 vssd1 vccd1 vccd1 _161_/X sky130_fd_sc_hd__a21o_1
Xcontrol2._0_ control2._0_/A input34/X vssd1 vssd1 vccd1 vccd1 ring_osc_out sky130_fd_sc_hd__ebufn_8