* NGSPICE file created from instrumented_adder.ext - technology: sky130A

* Black-box entry subcircuit for sky130_fd_sc_hd__decap_4 abstract view
.subckt sky130_fd_sc_hd__decap_4 VGND VNB VPB VPWR
.ends

* Black-box entry subcircuit for sky130_fd_sc_hd__nand2_1 abstract view
.subckt sky130_fd_sc_hd__nand2_1 A B VGND VNB VPB VPWR Y
.ends

* Black-box entry subcircuit for sky130_fd_sc_hd__inv_2 abstract view
.subckt sky130_fd_sc_hd__inv_2 A VGND VNB VPB VPWR Y
.ends

* Black-box entry subcircuit for sky130_fd_sc_hd__decap_8 abstract view
.subckt sky130_fd_sc_hd__decap_8 VGND VNB VPB VPWR
.ends

* Black-box entry subcircuit for sky130_fd_sc_hd__fill_2 abstract view
.subckt sky130_fd_sc_hd__fill_2 VGND VNB VPB VPWR
.ends

* Black-box entry subcircuit for sky130_fd_sc_hd__xnor2_1 abstract view
.subckt sky130_fd_sc_hd__xnor2_1 A B VGND VNB VPB VPWR Y
.ends

* Black-box entry subcircuit for sky130_fd_sc_hd__and4_1 abstract view
.subckt sky130_fd_sc_hd__and4_1 A B C D VGND VNB VPB VPWR X
.ends

* Black-box entry subcircuit for sky130_fd_sc_hd__fill_1 abstract view
.subckt sky130_fd_sc_hd__fill_1 VGND VNB VPB VPWR
.ends

* Black-box entry subcircuit for sky130_fd_sc_hd__decap_12 abstract view
.subckt sky130_fd_sc_hd__decap_12 VGND VNB VPB VPWR
.ends

* Black-box entry subcircuit for sky130_fd_sc_hd__tapvpwrvgnd_1 abstract view
.subckt sky130_fd_sc_hd__tapvpwrvgnd_1 VGND VPWR
.ends

* Black-box entry subcircuit for sky130_fd_sc_hd__clkbuf_1 abstract view
.subckt sky130_fd_sc_hd__clkbuf_1 A VGND VNB VPB VPWR X
.ends

* Black-box entry subcircuit for sky130_fd_sc_hd__o21a_1 abstract view
.subckt sky130_fd_sc_hd__o21a_1 A1 A2 B1 VGND VNB VPB VPWR X
.ends

* Black-box entry subcircuit for sky130_fd_sc_hd__and2_1 abstract view
.subckt sky130_fd_sc_hd__and2_1 A B VGND VNB VPB VPWR X
.ends

* Black-box entry subcircuit for sky130_fd_sc_hd__xnor2_4 abstract view
.subckt sky130_fd_sc_hd__xnor2_4 A B VGND VNB VPB VPWR Y
.ends

* Black-box entry subcircuit for sky130_fd_sc_hd__or2_1 abstract view
.subckt sky130_fd_sc_hd__or2_1 A B VGND VNB VPB VPWR X
.ends

* Black-box entry subcircuit for sky130_fd_sc_hd__decap_6 abstract view
.subckt sky130_fd_sc_hd__decap_6 VGND VNB VPB VPWR
.ends

* Black-box entry subcircuit for sky130_fd_sc_hd__or4b_2 abstract view
.subckt sky130_fd_sc_hd__or4b_2 A B C D_N VGND VNB VPB VPWR X
.ends

* Black-box entry subcircuit for sky130_fd_sc_hd__nand2_2 abstract view
.subckt sky130_fd_sc_hd__nand2_2 A B VGND VNB VPB VPWR Y
.ends

* Black-box entry subcircuit for sky130_fd_sc_hd__dfrtp_4 abstract view
.subckt sky130_fd_sc_hd__dfrtp_4 CLK D RESET_B VGND VNB VPB VPWR Q
.ends

* Black-box entry subcircuit for sky130_fd_sc_hd__or4bb_1 abstract view
.subckt sky130_fd_sc_hd__or4bb_1 A B C_N D_N VGND VNB VPB VPWR X
.ends

* Black-box entry subcircuit for sky130_fd_sc_hd__o21ai_2 abstract view
.subckt sky130_fd_sc_hd__o21ai_2 A1 A2 B1 VGND VNB VPB VPWR Y
.ends

* Black-box entry subcircuit for sky130_fd_sc_hd__nor2_1 abstract view
.subckt sky130_fd_sc_hd__nor2_1 A B VGND VNB VPB VPWR Y
.ends

* Black-box entry subcircuit for sky130_fd_sc_hd__o21bai_1 abstract view
.subckt sky130_fd_sc_hd__o21bai_1 A1 A2 B1_N VGND VNB VPB VPWR Y
.ends

* Black-box entry subcircuit for sky130_fd_sc_hd__or3_1 abstract view
.subckt sky130_fd_sc_hd__or3_1 A B C VGND VNB VPB VPWR X
.ends

* Black-box entry subcircuit for sky130_fd_sc_hd__decap_3 abstract view
.subckt sky130_fd_sc_hd__decap_3 VGND VNB VPB VPWR
.ends

* Black-box entry subcircuit for sky130_fd_sc_hd__a21oi_1 abstract view
.subckt sky130_fd_sc_hd__a21oi_1 A1 A2 B1 VGND VNB VPB VPWR Y
.ends

* Black-box entry subcircuit for sky130_fd_sc_hd__and3_1 abstract view
.subckt sky130_fd_sc_hd__and3_1 A B C VGND VNB VPB VPWR X
.ends

* Black-box entry subcircuit for sky130_fd_sc_hd__a32o_1 abstract view
.subckt sky130_fd_sc_hd__a32o_1 A1 A2 A3 B1 B2 VGND VNB VPB VPWR X
.ends

* Black-box entry subcircuit for sky130_fd_sc_hd__mux2_1 abstract view
.subckt sky130_fd_sc_hd__mux2_1 A0 A1 S VGND VNB VPB VPWR X
.ends

* Black-box entry subcircuit for sky130_fd_sc_hd__nor2_2 abstract view
.subckt sky130_fd_sc_hd__nor2_2 A B VGND VNB VPB VPWR Y
.ends

* Black-box entry subcircuit for sky130_fd_sc_hd__clkbuf_16 abstract view
.subckt sky130_fd_sc_hd__clkbuf_16 A VGND VNB VPB VPWR X
.ends

* Black-box entry subcircuit for sky130_fd_sc_hd__and2b_1 abstract view
.subckt sky130_fd_sc_hd__and2b_1 A_N B VGND VNB VPB VPWR X
.ends

* Black-box entry subcircuit for sky130_fd_sc_hd__o21ai_1 abstract view
.subckt sky130_fd_sc_hd__o21ai_1 A1 A2 B1 VGND VNB VPB VPWR Y
.ends

* Black-box entry subcircuit for sky130_fd_sc_hd__buf_2 abstract view
.subckt sky130_fd_sc_hd__buf_2 A VGND VNB VPB VPWR X
.ends

* Black-box entry subcircuit for sky130_fd_sc_hd__a21oi_2 abstract view
.subckt sky130_fd_sc_hd__a21oi_2 A1 A2 B1 VGND VNB VPB VPWR Y
.ends

* Black-box entry subcircuit for sky130_fd_sc_hd__a22o_1 abstract view
.subckt sky130_fd_sc_hd__a22o_1 A1 A2 B1 B2 VGND VNB VPB VPWR X
.ends

* Black-box entry subcircuit for sky130_fd_sc_hd__a221oi_1 abstract view
.subckt sky130_fd_sc_hd__a221oi_1 A1 A2 B1 B2 C1 VGND VNB VPB VPWR Y
.ends

* Black-box entry subcircuit for sky130_fd_sc_hd__o211a_1 abstract view
.subckt sky130_fd_sc_hd__o211a_1 A1 A2 B1 C1 VGND VNB VPB VPWR X
.ends

* Black-box entry subcircuit for sky130_fd_sc_hd__xor2_4 abstract view
.subckt sky130_fd_sc_hd__xor2_4 A B VGND VNB VPB VPWR X
.ends

* Black-box entry subcircuit for sky130_fd_sc_hd__a21o_1 abstract view
.subckt sky130_fd_sc_hd__a21o_1 A1 A2 B1 VGND VNB VPB VPWR X
.ends

* Black-box entry subcircuit for sky130_fd_sc_hd__o22a_1 abstract view
.subckt sky130_fd_sc_hd__o22a_1 A1 A2 B1 B2 VGND VNB VPB VPWR X
.ends

* Black-box entry subcircuit for sky130_fd_sc_hd__clkbuf_2 abstract view
.subckt sky130_fd_sc_hd__clkbuf_2 A VGND VNB VPB VPWR X
.ends

* Black-box entry subcircuit for sky130_fd_sc_hd__xor2_1 abstract view
.subckt sky130_fd_sc_hd__xor2_1 A B VGND VNB VPB VPWR X
.ends

* Black-box entry subcircuit for sky130_fd_sc_hd__dlymetal6s2s_1 abstract view
.subckt sky130_fd_sc_hd__dlymetal6s2s_1 A VGND VNB VPB VPWR X
.ends

* Black-box entry subcircuit for sky130_fd_sc_hd__a31o_2 abstract view
.subckt sky130_fd_sc_hd__a31o_2 A1 A2 A3 B1 VGND VNB VPB VPWR X
.ends

* Black-box entry subcircuit for sky130_fd_sc_hd__nand2_4 abstract view
.subckt sky130_fd_sc_hd__nand2_4 A B VGND VNB VPB VPWR Y
.ends

* Black-box entry subcircuit for sky130_fd_sc_hd__o21ba_2 abstract view
.subckt sky130_fd_sc_hd__o21ba_2 A1 A2 B1_N VGND VNB VPB VPWR X
.ends

* Black-box entry subcircuit for sky130_fd_sc_hd__or2b_1 abstract view
.subckt sky130_fd_sc_hd__or2b_1 A B_N VGND VNB VPB VPWR X
.ends

* Black-box entry subcircuit for sky130_fd_sc_hd__nor2_4 abstract view
.subckt sky130_fd_sc_hd__nor2_4 A B VGND VNB VPB VPWR Y
.ends

* Black-box entry subcircuit for sky130_fd_sc_hd__a211o_1 abstract view
.subckt sky130_fd_sc_hd__a211o_1 A1 A2 B1 C1 VGND VNB VPB VPWR X
.ends

* Black-box entry subcircuit for sky130_fd_sc_hd__a31o_1 abstract view
.subckt sky130_fd_sc_hd__a31o_1 A1 A2 A3 B1 VGND VNB VPB VPWR X
.ends

* Black-box entry subcircuit for sky130_fd_sc_hd__clkinv_2 abstract view
.subckt sky130_fd_sc_hd__clkinv_2 A VGND VNB VPB VPWR Y
.ends

* Black-box entry subcircuit for sky130_fd_sc_hd__a21o_2 abstract view
.subckt sky130_fd_sc_hd__a21o_2 A1 A2 B1 VGND VNB VPB VPWR X
.ends

* Black-box entry subcircuit for sky130_fd_sc_hd__or4_2 abstract view
.subckt sky130_fd_sc_hd__or4_2 A B C D VGND VNB VPB VPWR X
.ends

* Black-box entry subcircuit for sky130_fd_sc_hd__and3_2 abstract view
.subckt sky130_fd_sc_hd__and3_2 A B C VGND VNB VPB VPWR X
.ends

* Black-box entry subcircuit for sky130_fd_sc_hd__o21ba_1 abstract view
.subckt sky130_fd_sc_hd__o21ba_1 A1 A2 B1_N VGND VNB VPB VPWR X
.ends

.subckt instrumented_adder a_input[0] a_input[1] a_input[2] a_input[3] a_input[4]
+ a_input[5] a_input[6] a_input[7] b[0] b[1] b[2] b[3] b[4] b[5] b[6] b[7] bypass
+ chain clk counter_end[0] counter_end[1] counter_end[2] counter_end[3] counter_end[4]
+ counter_end[5] counter_end[6] counter_end[7] counter_out[0] counter_out[1] counter_out[2]
+ counter_out[3] counter_out[4] counter_out[5] counter_out[6] counter_out[7] extra_inverter
+ reset ring_osc_counter_out[0] ring_osc_counter_out[1] ring_osc_counter_out[2] ring_osc_counter_out[3]
+ ring_osc_counter_out[4] ring_osc_counter_out[5] ring_osc_counter_out[6] ring_osc_counter_out[7]
+ run sum_out[0] sum_out[1] sum_out[2] sum_out[3] sum_out[4] sum_out[5] sum_out[6]
+ sum_out[7] time_count_overflow vccd1 vssd1
XFILLER_22_100 vssd1 vssd1 vccd1 vccd1 sky130_fd_sc_hd__decap_4
XFILLER_3_45 vssd1 vssd1 vccd1 vccd1 sky130_fd_sc_hd__decap_4
XFILLER_3_89 vssd1 vssd1 vccd1 vccd1 sky130_fd_sc_hd__decap_4
X_294_ _296_/A _296_/B vssd1 vssd1 vccd1 vccd1 _294_/Y sky130_fd_sc_hd__nand2_1
Xbuffers\[6\]._0_ buffers\[6\]._0_/A vssd1 vssd1 vccd1 vccd1 buffers\[7\]._0_/A sky130_fd_sc_hd__inv_2
XFILLER_10_114 vssd1 vssd1 vccd1 vccd1 sky130_fd_sc_hd__decap_8
XFILLER_12_43 vssd1 vssd1 vccd1 vccd1 sky130_fd_sc_hd__fill_2
XFILLER_12_76 vssd1 vssd1 vccd1 vccd1 sky130_fd_sc_hd__decap_8
X_277_ ring_osc_counter_out[7] _277_/B vssd1 vssd1 vccd1 vccd1 _312_/D sky130_fd_sc_hd__xnor2_1
XFILLER_23_31 vssd1 vssd1 vccd1 vccd1 sky130_fd_sc_hd__decap_8
X_200_ counter_out[2] _200_/B _200_/C _200_/D vssd1 vssd1 vccd1 vccd1 _200_/X sky130_fd_sc_hd__and4_1
XFILLER_17_9 vssd1 vssd1 vccd1 vccd1 sky130_fd_sc_hd__fill_1
XFILLER_2_121 vssd1 vssd1 vccd1 vccd1 sky130_fd_sc_hd__decap_4
XFILLER_0_57 vssd1 vssd1 vccd1 vccd1 sky130_fd_sc_hd__decap_12
XFILLER_0_13 vssd1 vssd1 vccd1 vccd1 sky130_fd_sc_hd__decap_4
XFILLER_9_33 vssd1 vssd1 vccd1 vccd1 sky130_fd_sc_hd__decap_4
XFILLER_13_3 vssd1 vssd1 vccd1 vccd1 sky130_fd_sc_hd__decap_12
XFILLER_15_32 vssd1 vssd1 vccd1 vccd1 sky130_fd_sc_hd__decap_4
XTAP_112 vssd1 vccd1 sky130_fd_sc_hd__tapvpwrvgnd_1
XTAP_101 vssd1 vccd1 sky130_fd_sc_hd__tapvpwrvgnd_1
XFILLER_13_101 vssd1 vssd1 vccd1 vccd1 sky130_fd_sc_hd__decap_4
X_293_ _293_/A _293_/B vssd1 vssd1 vccd1 vccd1 _293_/Y sky130_fd_sc_hd__nand2_1
XFILLER_6_108 vssd1 vssd1 vccd1 vccd1 sky130_fd_sc_hd__fill_1
X_276_ _276_/A vssd1 vssd1 vccd1 vccd1 _311_/D sky130_fd_sc_hd__clkbuf_1
XFILLER_0_69 vssd1 vssd1 vccd1 vccd1 sky130_fd_sc_hd__decap_4
XFILLER_9_23 vssd1 vssd1 vccd1 vccd1 sky130_fd_sc_hd__fill_1
X_259_ _256_/A _258_/A _257_/A vssd1 vssd1 vccd1 vccd1 _260_/B sky130_fd_sc_hd__o21a_1
Xbuffers\[5\]._0_ buffers\[5\]._0_/A vssd1 vssd1 vccd1 vccd1 buffers\[6\]._0_/A sky130_fd_sc_hd__inv_2
XFILLER_18_32 vssd1 vssd1 vccd1 vccd1 sky130_fd_sc_hd__decap_4
XFILLER_20_44 vssd1 vssd1 vccd1 vccd1 sky130_fd_sc_hd__decap_12
XFILLER_6_79 vssd1 vssd1 vccd1 vccd1 sky130_fd_sc_hd__decap_4
XFILLER_16_110 vssd1 vssd1 vccd1 vccd1 sky130_fd_sc_hd__decap_8
XTAP_113 vssd1 vccd1 sky130_fd_sc_hd__tapvpwrvgnd_1
XTAP_102 vssd1 vccd1 sky130_fd_sc_hd__tapvpwrvgnd_1
XFILLER_13_113 vssd1 vssd1 vccd1 vccd1 sky130_fd_sc_hd__decap_12
X_292_ _293_/A _293_/B vssd1 vssd1 vccd1 vccd1 _292_/Y sky130_fd_sc_hd__nand2_1
XFILLER_3_69 vssd1 vssd1 vccd1 vccd1 sky130_fd_sc_hd__decap_8
XFILLER_10_127 vssd1 vssd1 vccd1 vccd1 sky130_fd_sc_hd__decap_12
X_275_ _277_/B _275_/B vssd1 vssd1 vccd1 vccd1 _276_/A sky130_fd_sc_hd__and2_1
XFILLER_5_131 vssd1 vssd1 vccd1 vccd1 sky130_fd_sc_hd__decap_4
XFILLER_23_88 vssd1 vssd1 vccd1 vccd1 sky130_fd_sc_hd__decap_12
XFILLER_23_55 vssd1 vssd1 vccd1 vccd1 sky130_fd_sc_hd__fill_1
XFILLER_3_3 vssd1 vssd1 vccd1 vccd1 sky130_fd_sc_hd__decap_4
XFILLER_2_145 vssd1 vssd1 vccd1 vccd1 sky130_fd_sc_hd__decap_4
XFILLER_0_37 vssd1 vssd1 vccd1 vccd1 sky130_fd_sc_hd__decap_12
X_189_ _200_/C vssd1 vssd1 vccd1 vccd1 _205_/C sky130_fd_sc_hd__clkbuf_1
XFILLER_9_57 vssd1 vssd1 vccd1 vccd1 sky130_fd_sc_hd__decap_12
X_258_ _258_/A _258_/B vssd1 vssd1 vccd1 vccd1 sum_out[5] sky130_fd_sc_hd__xnor2_4
XFILLER_18_88 vssd1 vssd1 vccd1 vccd1 sky130_fd_sc_hd__decap_12
XFILLER_20_56 vssd1 vssd1 vccd1 vccd1 sky130_fd_sc_hd__decap_12
XFILLER_20_23 vssd1 vssd1 vccd1 vccd1 sky130_fd_sc_hd__decap_4
XFILLER_1_91 vssd1 vssd1 vccd1 vccd1 sky130_fd_sc_hd__decap_8
XFILLER_20_6 vssd1 vssd1 vccd1 vccd1 sky130_fd_sc_hd__decap_12
Xbuffers\[4\]._0_ buffers\[4\]._0_/A vssd1 vssd1 vccd1 vccd1 buffers\[5\]._0_/A sky130_fd_sc_hd__inv_2
XTAP_114 vssd1 vccd1 sky130_fd_sc_hd__tapvpwrvgnd_1
XFILLER_22_136 vssd1 vssd1 vccd1 vccd1 sky130_fd_sc_hd__decap_4
XTAP_103 vssd1 vccd1 sky130_fd_sc_hd__tapvpwrvgnd_1
XFILLER_13_125 vssd1 vssd1 vccd1 vccd1 sky130_fd_sc_hd__decap_12
X_291_ _293_/A _293_/B vssd1 vssd1 vccd1 vccd1 _291_/Y sky130_fd_sc_hd__nand2_1
XFILLER_3_26 vssd1 vssd1 vccd1 vccd1 sky130_fd_sc_hd__fill_2
XFILLER_3_37 vssd1 vssd1 vccd1 vccd1 sky130_fd_sc_hd__decap_4
XFILLER_10_139 vssd1 vssd1 vccd1 vccd1 sky130_fd_sc_hd__fill_1
XFILLER_12_35 vssd1 vssd1 vccd1 vccd1 sky130_fd_sc_hd__decap_8
X_274_ ring_osc_counter_out[6] _274_/B vssd1 vssd1 vccd1 vccd1 _275_/B sky130_fd_sc_hd__or2_1
XFILLER_4_80 vssd1 vssd1 vccd1 vccd1 sky130_fd_sc_hd__decap_4
XFILLER_0_49 vssd1 vssd1 vccd1 vccd1 sky130_fd_sc_hd__decap_6
XFILLER_0_27 vssd1 vssd1 vccd1 vccd1 sky130_fd_sc_hd__fill_1
X_188_ _188_/A _188_/B _188_/C _166_/X vssd1 vssd1 vccd1 vccd1 _200_/C sky130_fd_sc_hd__or4b_2
XFILLER_9_69 vssd1 vssd1 vccd1 vccd1 sky130_fd_sc_hd__decap_4
X_257_ _257_/A _257_/B vssd1 vssd1 vccd1 vccd1 _258_/B sky130_fd_sc_hd__nand2_2
X_309_ _293_/Y _309_/D _147_/Y vssd1 vssd1 vccd1 vccd1 ring_osc_counter_out[4] sky130_fd_sc_hd__dfrtp_4
XFILLER_6_15 vssd1 vssd1 vccd1 vccd1 sky130_fd_sc_hd__decap_4
XFILLER_6_37 vssd1 vssd1 vccd1 vccd1 sky130_fd_sc_hd__decap_8
XFILLER_19_120 vssd1 vssd1 vccd1 vccd1 sky130_fd_sc_hd__decap_8
XTAP_115 vssd1 vccd1 sky130_fd_sc_hd__tapvpwrvgnd_1
XTAP_104 vssd1 vccd1 sky130_fd_sc_hd__tapvpwrvgnd_1
XFILLER_16_145 vssd1 vssd1 vccd1 vccd1 sky130_fd_sc_hd__decap_4
XFILLER_11_3 vssd1 vssd1 vccd1 vccd1 sky130_fd_sc_hd__decap_12
XFILLER_22_104 vssd1 vssd1 vccd1 vccd1 sky130_fd_sc_hd__fill_1
Xbuffers\[3\]._0_ buffers\[3\]._0_/A vssd1 vssd1 vccd1 vccd1 buffers\[4\]._0_/A sky130_fd_sc_hd__inv_2
XFILLER_13_137 vssd1 vssd1 vccd1 vccd1 sky130_fd_sc_hd__decap_12
X_290_ _293_/A _293_/B vssd1 vssd1 vccd1 vccd1 _290_/Y sky130_fd_sc_hd__nand2_1
XFILLER_9_108 vssd1 vssd1 vccd1 vccd1 sky130_fd_sc_hd__decap_4
XFILLER_9_119 vssd1 vssd1 vccd1 vccd1 sky130_fd_sc_hd__decap_8
X_273_ ring_osc_counter_out[6] _274_/B vssd1 vssd1 vccd1 vccd1 _277_/B sky130_fd_sc_hd__nand2_1
XFILLER_5_8 vssd1 vssd1 vccd1 vccd1 sky130_fd_sc_hd__decap_4
XFILLER_5_111 vssd1 vssd1 vccd1 vccd1 sky130_fd_sc_hd__fill_1
XFILLER_23_57 vssd1 vssd1 vccd1 vccd1 sky130_fd_sc_hd__decap_12
XFILLER_2_136 vssd1 vssd1 vccd1 vccd1 sky130_fd_sc_hd__decap_4
XFILLER_2_125 vssd1 vssd1 vccd1 vccd1 sky130_fd_sc_hd__fill_1
XFILLER_2_114 vssd1 vssd1 vccd1 vccd1 sky130_fd_sc_hd__decap_4
X_187_ _187_/A _187_/B _171_/Y _174_/X vssd1 vssd1 vccd1 vccd1 _188_/C sky130_fd_sc_hd__or4bb_1
XFILLER_0_17 vssd1 vssd1 vccd1 vccd1 sky130_fd_sc_hd__fill_1
X_256_ _256_/A vssd1 vssd1 vccd1 vccd1 _257_/B sky130_fd_sc_hd__inv_2
XFILLER_18_24 vssd1 vssd1 vccd1 vccd1 sky130_fd_sc_hd__decap_4
X_308_ _292_/Y _308_/D _148_/Y vssd1 vssd1 vccd1 vccd1 ring_osc_counter_out[3] sky130_fd_sc_hd__dfrtp_4
X_239_ _238_/A _261_/A _238_/C vssd1 vssd1 vccd1 vccd1 _240_/B sky130_fd_sc_hd__o21ai_2
XFILLER_10_91 vssd1 vssd1 vccd1 vccd1 sky130_fd_sc_hd__fill_1
XTAP_116 vssd1 vccd1 sky130_fd_sc_hd__tapvpwrvgnd_1
XTAP_105 vssd1 vccd1 sky130_fd_sc_hd__tapvpwrvgnd_1
XFILLER_7_81 vssd1 vssd1 vccd1 vccd1 sky130_fd_sc_hd__decap_8
X_272_ _274_/B _272_/B vssd1 vssd1 vccd1 vccd1 _310_/D sky130_fd_sc_hd__nor2_1
XFILLER_12_26 vssd1 vssd1 vccd1 vccd1 sky130_fd_sc_hd__fill_2
XFILLER_5_145 vssd1 vssd1 vccd1 vccd1 sky130_fd_sc_hd__decap_4
XFILLER_23_69 vssd1 vssd1 vccd1 vccd1 sky130_fd_sc_hd__decap_12
Xbuffers\[2\]._0_ buffers\[2\]._0_/A vssd1 vssd1 vccd1 vccd1 buffers\[3\]._0_/A sky130_fd_sc_hd__inv_2
X_255_ _255_/A _255_/B vssd1 vssd1 vccd1 vccd1 sum_out[4] sky130_fd_sc_hd__xnor2_4
X_186_ counter_out[0] _173_/A _177_/X vssd1 vssd1 vccd1 vccd1 _187_/B sky130_fd_sc_hd__o21bai_1
XFILLER_13_91 vssd1 vssd1 vccd1 vccd1 sky130_fd_sc_hd__decap_4
XFILLER_13_80 vssd1 vssd1 vccd1 vccd1 sky130_fd_sc_hd__decap_6
XFILLER_0_29 vssd1 vssd1 vccd1 vccd1 sky130_fd_sc_hd__decap_4
XFILLER_18_58 vssd1 vssd1 vccd1 vccd1 sky130_fd_sc_hd__fill_1
X_169_ _169_/A _177_/B vssd1 vssd1 vccd1 vccd1 _170_/B sky130_fd_sc_hd__nand2_1
X_307_ _291_/Y _307_/D _150_/Y vssd1 vssd1 vccd1 vccd1 ring_osc_counter_out[2] sky130_fd_sc_hd__dfrtp_4
X_238_ _238_/A _261_/A _238_/C vssd1 vssd1 vccd1 vccd1 _240_/A sky130_fd_sc_hd__or3_1
XFILLER_20_37 vssd1 vssd1 vccd1 vccd1 sky130_fd_sc_hd__decap_4
XFILLER_10_81 vssd1 vssd1 vccd1 vccd1 sky130_fd_sc_hd__decap_3
XFILLER_16_136 vssd1 vssd1 vccd1 vccd1 sky130_fd_sc_hd__decap_4
XFILLER_16_125 vssd1 vssd1 vccd1 vccd1 sky130_fd_sc_hd__decap_4
XFILLER_16_103 vssd1 vssd1 vccd1 vccd1 sky130_fd_sc_hd__decap_4
XTAP_106 vssd1 vccd1 sky130_fd_sc_hd__tapvpwrvgnd_1
XPHY_0 vssd1 vssd1 vccd1 vccd1 sky130_fd_sc_hd__decap_3
XFILLER_3_18 vssd1 vssd1 vccd1 vccd1 sky130_fd_sc_hd__decap_8
XFILLER_16_80 vssd1 vssd1 vccd1 vccd1 sky130_fd_sc_hd__decap_4
X_271_ ring_osc_counter_out[4] _270_/C ring_osc_counter_out[5] vssd1 vssd1 vccd1 vccd1
+ _272_/B sky130_fd_sc_hd__a21oi_1
XFILLER_5_113 vssd1 vssd1 vccd1 vccd1 sky130_fd_sc_hd__decap_12
X_254_ _254_/A _254_/B vssd1 vssd1 vccd1 vccd1 _255_/B sky130_fd_sc_hd__nand2_1
X_185_ _200_/B vssd1 vssd1 vccd1 vccd1 _205_/B sky130_fd_sc_hd__clkbuf_1
XFILLER_3_7 vssd1 vssd1 vccd1 vccd1 sky130_fd_sc_hd__fill_1
XFILLER_9_17 vssd1 vssd1 vccd1 vccd1 sky130_fd_sc_hd__decap_6
XFILLER_18_15 vssd1 vssd1 vccd1 vccd1 sky130_fd_sc_hd__decap_6
X_168_ _173_/A _173_/B _176_/A vssd1 vssd1 vccd1 vccd1 _177_/B sky130_fd_sc_hd__or3_1
Xbuffers\[1\]._0_ buffers\[1\]._0_/A vssd1 vssd1 vccd1 vccd1 buffers\[2\]._0_/A sky130_fd_sc_hd__inv_2
X_237_ _237_/A _237_/B vssd1 vssd1 vccd1 vccd1 _238_/C sky130_fd_sc_hd__xnor2_1
X_306_ _290_/Y _306_/D _151_/Y vssd1 vssd1 vccd1 vccd1 ring_osc_counter_out[1] sky130_fd_sc_hd__dfrtp_4
XFILLER_20_27 vssd1 vssd1 vccd1 vccd1 sky130_fd_sc_hd__fill_1
XFILLER_1_62 vssd1 vssd1 vccd1 vccd1 sky130_fd_sc_hd__decap_6
XFILLER_19_145 vssd1 vssd1 vccd1 vccd1 sky130_fd_sc_hd__decap_4
XFILLER_6_29 vssd1 vssd1 vccd1 vccd1 sky130_fd_sc_hd__fill_1
XTAP_107 vssd1 vccd1 sky130_fd_sc_hd__tapvpwrvgnd_1
XPHY_1 vssd1 vssd1 vccd1 vccd1 sky130_fd_sc_hd__decap_3
XFILLER_7_94 vssd1 vssd1 vccd1 vccd1 sky130_fd_sc_hd__decap_4
X_270_ ring_osc_counter_out[4] ring_osc_counter_out[5] _270_/C vssd1 vssd1 vccd1 vccd1
+ _274_/B sky130_fd_sc_hd__and3_1
XFILLER_5_125 vssd1 vssd1 vccd1 vccd1 sky130_fd_sc_hd__decap_3
XFILLER_4_51 vssd1 vssd1 vccd1 vccd1 sky130_fd_sc_hd__decap_4
XFILLER_4_95 vssd1 vssd1 vccd1 vccd1 sky130_fd_sc_hd__decap_6
XFILLER_23_49 vssd1 vssd1 vccd1 vccd1 sky130_fd_sc_hd__decap_6
X_253_ _253_/A _253_/B vssd1 vssd1 vccd1 vccd1 sum_out[3] sky130_fd_sc_hd__xnor2_4
X_184_ _166_/X _171_/Y _181_/X _183_/Y _166_/A vssd1 vssd1 vccd1 vccd1 _200_/B sky130_fd_sc_hd__a32o_1
X_167_ _167_/A vssd1 vssd1 vccd1 vccd1 _173_/A sky130_fd_sc_hd__clkbuf_1
X_236_ input8/X chain _236_/S vssd1 vssd1 vccd1 vccd1 _237_/B sky130_fd_sc_hd__mux2_1
X_305_ _289_/Y _305_/D _152_/Y vssd1 vssd1 vccd1 vccd1 ring_osc_counter_out[0] sky130_fd_sc_hd__dfrtp_4
XFILLER_1_52 vssd1 vssd1 vccd1 vccd1 sky130_fd_sc_hd__decap_4
XFILLER_1_41 vssd1 vssd1 vccd1 vccd1 sky130_fd_sc_hd__decap_8
XFILLER_19_113 vssd1 vssd1 vccd1 vccd1 sky130_fd_sc_hd__fill_2
XFILLER_10_61 vssd1 vssd1 vccd1 vccd1 sky130_fd_sc_hd__fill_1
X_219_ _219_/A _219_/B vssd1 vssd1 vccd1 vccd1 _255_/A sky130_fd_sc_hd__nor2_2
Xbuffers\[0\]._0_ _245_/Y vssd1 vssd1 vccd1 vccd1 buffers\[1\]._0_/A sky130_fd_sc_hd__inv_2
XTAP_108 vssd1 vccd1 sky130_fd_sc_hd__tapvpwrvgnd_1
Xclkbuf_0_clk clk vssd1 vssd1 vccd1 vccd1 clkbuf_0_clk/X sky130_fd_sc_hd__clkbuf_16
XPHY_2 vssd1 vssd1 vccd1 vccd1 sky130_fd_sc_hd__decap_3
XFILLER_13_108 vssd1 vssd1 vccd1 vccd1 sky130_fd_sc_hd__decap_4
XFILLER_16_93 vssd1 vssd1 vccd1 vccd1 sky130_fd_sc_hd__decap_4
XFILLER_12_141 vssd1 vssd1 vccd1 vccd1 sky130_fd_sc_hd__decap_8
XFILLER_8_145 vssd1 vssd1 vccd1 vccd1 sky130_fd_sc_hd__decap_4
XFILLER_12_18 vssd1 vssd1 vccd1 vccd1 sky130_fd_sc_hd__decap_8
XFILLER_12_29 vssd1 vssd1 vccd1 vccd1 sky130_fd_sc_hd__decap_3
XFILLER_23_39 vssd1 vssd1 vccd1 vccd1 sky130_fd_sc_hd__decap_3
X_252_ _228_/X _254_/A vssd1 vssd1 vccd1 vccd1 _253_/B sky130_fd_sc_hd__and2b_1
X_183_ _182_/X _166_/C _166_/B vssd1 vssd1 vccd1 vccd1 _183_/Y sky130_fd_sc_hd__o21ai_1
XFILLER_13_61 vssd1 vssd1 vccd1 vccd1 sky130_fd_sc_hd__decap_4
XFILLER_24_93 vssd1 vssd1 vccd1 vccd1 sky130_fd_sc_hd__fill_1
XFILLER_24_60 vssd1 vssd1 vccd1 vccd1 sky130_fd_sc_hd__decap_12
X_304_ _304_/CLK _304_/D _286_/Y vssd1 vssd1 vccd1 vccd1 counter_out[7] sky130_fd_sc_hd__dfrtp_4
X_235_ _235_/A vssd1 vssd1 vccd1 vccd1 _236_/S sky130_fd_sc_hd__inv_2
XFILLER_20_18 vssd1 vssd1 vccd1 vccd1 sky130_fd_sc_hd__fill_2
X_166_ _166_/A _166_/B _166_/C _166_/D vssd1 vssd1 vccd1 vccd1 _166_/X sky130_fd_sc_hd__and4_1
XFILLER_1_20 vssd1 vssd1 vccd1 vccd1 sky130_fd_sc_hd__decap_4
XFILLER_19_136 vssd1 vssd1 vccd1 vccd1 sky130_fd_sc_hd__decap_4
X_218_ _235_/A _217_/B _217_/C vssd1 vssd1 vccd1 vccd1 _219_/B sky130_fd_sc_hd__a21oi_1
XFILLER_19_103 vssd1 vssd1 vccd1 vccd1 sky130_fd_sc_hd__fill_1
X_149_ _286_/A vssd1 vssd1 vccd1 vccd1 _279_/A sky130_fd_sc_hd__buf_2
XTAP_109 vssd1 vccd1 sky130_fd_sc_hd__tapvpwrvgnd_1
XFILLER_21_94 vssd1 vssd1 vccd1 vccd1 sky130_fd_sc_hd__decap_8
XPHY_3 vssd1 vssd1 vccd1 vccd1 sky130_fd_sc_hd__decap_3
XFILLER_8_135 vssd1 vssd1 vccd1 vccd1 sky130_fd_sc_hd__decap_4
XFILLER_4_64 vssd1 vssd1 vccd1 vccd1 sky130_fd_sc_hd__fill_1
X_251_ _250_/A _250_/B _227_/A vssd1 vssd1 vccd1 vccd1 _253_/A sky130_fd_sc_hd__a21oi_2
X_182_ counter_out[5] _161_/X _158_/X counter_out[6] vssd1 vssd1 vccd1 vccd1 _182_/X
+ sky130_fd_sc_hd__a22o_1
XFILLER_13_51 vssd1 vssd1 vccd1 vccd1 sky130_fd_sc_hd__decap_4
XFILLER_24_72 vssd1 vssd1 vccd1 vccd1 sky130_fd_sc_hd__decap_12
X_165_ counter_out[5] _161_/X _158_/X counter_out[6] _164_/X vssd1 vssd1 vccd1 vccd1
+ _166_/D sky130_fd_sc_hd__a221oi_1
X_303_ _304_/CLK _303_/D _285_/Y vssd1 vssd1 vccd1 vccd1 counter_out[6] sky130_fd_sc_hd__dfrtp_4
X_234_ _256_/A _258_/A _260_/A _257_/A vssd1 vssd1 vccd1 vccd1 _261_/A sky130_fd_sc_hd__o211a_1
X_217_ _228_/A _217_/B _217_/C vssd1 vssd1 vccd1 vccd1 _219_/A sky130_fd_sc_hd__and3_1
X_148_ _148_/A vssd1 vssd1 vccd1 vccd1 _148_/Y sky130_fd_sc_hd__inv_2
XFILLER_10_85 vssd1 vssd1 vccd1 vccd1 sky130_fd_sc_hd__decap_6
XFILLER_21_40 vssd1 vssd1 vccd1 vccd1 sky130_fd_sc_hd__decap_4
XFILLER_16_118 vssd1 vssd1 vccd1 vccd1 sky130_fd_sc_hd__fill_2
XPHY_4 vssd1 vssd1 vccd1 vccd1 sky130_fd_sc_hd__decap_3
XFILLER_16_40 vssd1 vssd1 vccd1 vccd1 sky130_fd_sc_hd__decap_8
XFILLER_4_32 vssd1 vssd1 vccd1 vccd1 sky130_fd_sc_hd__decap_4
X_250_ _250_/A _250_/B vssd1 vssd1 vccd1 vccd1 sum_out[2] sky130_fd_sc_hd__xor2_4
X_181_ _181_/A _188_/A _188_/B vssd1 vssd1 vccd1 vccd1 _181_/X sky130_fd_sc_hd__or3_1
Xbuffers\[19\]._0_ buffers\[19\]._0_/A vssd1 vssd1 vccd1 vccd1 buffers\[20\]._0_/A
+ sky130_fd_sc_hd__inv_2
XFILLER_24_51 vssd1 vssd1 vccd1 vccd1 sky130_fd_sc_hd__decap_4
X_302_ _302_/CLK _302_/D _284_/Y vssd1 vssd1 vccd1 vccd1 counter_out[5] sky130_fd_sc_hd__dfrtp_4
X_164_ counter_out[4] _164_/B vssd1 vssd1 vccd1 vccd1 _164_/X sky130_fd_sc_hd__and2_1
XFILLER_1_99 vssd1 vssd1 vccd1 vccd1 sky130_fd_sc_hd__fill_1
X_233_ _216_/A _216_/B _216_/C vssd1 vssd1 vccd1 vccd1 _257_/A sky130_fd_sc_hd__a21o_1
XFILLER_19_51 vssd1 vssd1 vccd1 vccd1 sky130_fd_sc_hd__decap_4
XFILLER_19_40 vssd1 vssd1 vccd1 vccd1 sky130_fd_sc_hd__decap_6
XFILLER_10_20 vssd1 vssd1 vccd1 vccd1 sky130_fd_sc_hd__fill_1
XFILLER_18_3 vssd1 vssd1 vccd1 vccd1 sky130_fd_sc_hd__decap_12
X_147_ _148_/A vssd1 vssd1 vccd1 vccd1 _147_/Y sky130_fd_sc_hd__inv_2
X_216_ _216_/A _216_/B _216_/C vssd1 vssd1 vccd1 vccd1 _256_/A sky130_fd_sc_hd__and3_1
XFILLER_21_85 vssd1 vssd1 vccd1 vccd1 sky130_fd_sc_hd__decap_4
XFILLER_21_74 vssd1 vssd1 vccd1 vccd1 sky130_fd_sc_hd__decap_4
XFILLER_21_63 vssd1 vssd1 vccd1 vccd1 sky130_fd_sc_hd__decap_4
XPHY_5 vssd1 vssd1 vccd1 vccd1 sky130_fd_sc_hd__decap_3
XFILLER_7_54 vssd1 vssd1 vccd1 vccd1 sky130_fd_sc_hd__fill_2
XFILLER_16_74 vssd1 vssd1 vccd1 vccd1 sky130_fd_sc_hd__fill_1
XFILLER_5_107 vssd1 vssd1 vccd1 vccd1 sky130_fd_sc_hd__decap_4
XFILLER_13_86 vssd1 vssd1 vccd1 vccd1 sky130_fd_sc_hd__fill_1
X_180_ _177_/B _177_/C counter_out[2] vssd1 vssd1 vccd1 vccd1 _188_/B sky130_fd_sc_hd__a21oi_1
XFILLER_24_85 vssd1 vssd1 vccd1 vccd1 sky130_fd_sc_hd__decap_8
X_301_ _302_/CLK _301_/D _283_/Y vssd1 vssd1 vccd1 vccd1 counter_out[4] sky130_fd_sc_hd__dfrtp_4
X_163_ counter_out[5] _161_/X _164_/B counter_out[4] vssd1 vssd1 vccd1 vccd1 _166_/C
+ sky130_fd_sc_hd__o22a_1
X_232_ _238_/A _232_/B vssd1 vssd1 vccd1 vccd1 _260_/A sky130_fd_sc_hd__nor2_1
XFILLER_1_34 vssd1 vssd1 vccd1 vccd1 sky130_fd_sc_hd__decap_4
XFILLER_19_128 vssd1 vssd1 vccd1 vccd1 sky130_fd_sc_hd__fill_1
Xbuffers\[18\]._0_ buffers\[18\]._0_/A vssd1 vssd1 vccd1 vccd1 buffers\[19\]._0_/A
+ sky130_fd_sc_hd__inv_2
X_146_ _148_/A vssd1 vssd1 vccd1 vccd1 _146_/Y sky130_fd_sc_hd__inv_2
X_215_ _235_/A vssd1 vssd1 vccd1 vccd1 _216_/A sky130_fd_sc_hd__clkbuf_2
XPHY_6 vssd1 vssd1 vccd1 vccd1 sky130_fd_sc_hd__decap_3
XFILLER_21_145 vssd1 vssd1 vccd1 vccd1 sky130_fd_sc_hd__decap_4
XFILLER_1_111 vssd1 vssd1 vccd1 vccd1 sky130_fd_sc_hd__fill_1
XFILLER_8_3 vssd1 vssd1 vccd1 vccd1 sky130_fd_sc_hd__fill_1
XFILLER_24_97 vssd1 vssd1 vccd1 vccd1 sky130_fd_sc_hd__decap_12
X_162_ _162_/A _170_/A vssd1 vssd1 vccd1 vccd1 _164_/B sky130_fd_sc_hd__xor2_1
X_300_ _302_/CLK _300_/D _282_/Y vssd1 vssd1 vccd1 vccd1 counter_out[3] sky130_fd_sc_hd__dfrtp_4
X_231_ _216_/A _214_/B _214_/C vssd1 vssd1 vccd1 vccd1 _232_/B sky130_fd_sc_hd__a21oi_1
XFILLER_1_13 vssd1 vssd1 vccd1 vccd1 sky130_fd_sc_hd__decap_4
Xinput1 a_input[0] vssd1 vssd1 vccd1 vccd1 _221_/B sky130_fd_sc_hd__dlymetal6s2s_1
XTAP_90 vssd1 vccd1 sky130_fd_sc_hd__tapvpwrvgnd_1
XFILLER_19_75 vssd1 vssd1 vccd1 vccd1 sky130_fd_sc_hd__decap_12
X_145_ _148_/A vssd1 vssd1 vccd1 vccd1 _145_/Y sky130_fd_sc_hd__inv_2
X_214_ _235_/A _214_/B _214_/C vssd1 vssd1 vccd1 vccd1 _238_/A sky130_fd_sc_hd__and3_1
XFILLER_24_121 vssd1 vssd1 vccd1 vccd1 sky130_fd_sc_hd__fill_1
XPHY_7 vssd1 vssd1 vccd1 vccd1 sky130_fd_sc_hd__decap_3
XFILLER_23_3 vssd1 vssd1 vccd1 vccd1 sky130_fd_sc_hd__decap_4
Xbuffers\[17\]._0_ buffers\[17\]._0_/A vssd1 vssd1 vccd1 vccd1 buffers\[18\]._0_/A
+ sky130_fd_sc_hd__inv_2
XFILLER_7_23 vssd1 vssd1 vccd1 vccd1 sky130_fd_sc_hd__decap_4
XFILLER_7_34 vssd1 vssd1 vccd1 vccd1 sky130_fd_sc_hd__decap_4
XFILLER_7_89 vssd1 vssd1 vccd1 vccd1 sky130_fd_sc_hd__fill_2
XFILLER_8_139 vssd1 vssd1 vccd1 vccd1 sky130_fd_sc_hd__fill_1
XFILLER_4_24 vssd1 vssd1 vccd1 vccd1 sky130_fd_sc_hd__decap_4
XFILLER_4_68 vssd1 vssd1 vccd1 vccd1 sky130_fd_sc_hd__decap_12
XFILLER_4_120 vssd1 vssd1 vccd1 vccd1 sky130_fd_sc_hd__decap_8
XFILLER_13_55 vssd1 vssd1 vccd1 vccd1 sky130_fd_sc_hd__fill_1
XFILLER_1_145 vssd1 vssd1 vccd1 vccd1 sky130_fd_sc_hd__decap_4
X_161_ _161_/A _161_/B vssd1 vssd1 vccd1 vccd1 _161_/X sky130_fd_sc_hd__and2_1
X_230_ _255_/A _254_/A _254_/B _219_/A vssd1 vssd1 vccd1 vccd1 _258_/A sky130_fd_sc_hd__a31o_2
XTAP_91 vssd1 vccd1 sky130_fd_sc_hd__tapvpwrvgnd_1
Xinput2 a_input[1] vssd1 vssd1 vccd1 vccd1 _223_/B sky130_fd_sc_hd__clkbuf_1
XTAP_80 vssd1 vccd1 sky130_fd_sc_hd__tapvpwrvgnd_1
XFILLER_19_108 vssd1 vssd1 vccd1 vccd1 sky130_fd_sc_hd__decap_4
XFILLER_19_87 vssd1 vssd1 vccd1 vccd1 sky130_fd_sc_hd__decap_12
XFILLER_19_65 vssd1 vssd1 vccd1 vccd1 sky130_fd_sc_hd__decap_3
X_213_ _228_/A vssd1 vssd1 vccd1 vccd1 _235_/A sky130_fd_sc_hd__clkbuf_2
X_144_ _148_/A vssd1 vssd1 vccd1 vccd1 _144_/Y sky130_fd_sc_hd__inv_2
XFILLER_18_141 vssd1 vssd1 vccd1 vccd1 sky130_fd_sc_hd__fill_1
XFILLER_21_55 vssd1 vssd1 vccd1 vccd1 sky130_fd_sc_hd__fill_1
XFILLER_16_3 vssd1 vssd1 vccd1 vccd1 sky130_fd_sc_hd__decap_12
XFILLER_15_122 vssd1 vssd1 vccd1 vccd1 sky130_fd_sc_hd__fill_1
XFILLER_15_111 vssd1 vssd1 vccd1 vccd1 sky130_fd_sc_hd__fill_1
XPHY_8 vssd1 vssd1 vccd1 vccd1 sky130_fd_sc_hd__decap_3
XFILLER_7_46 vssd1 vssd1 vccd1 vccd1 sky130_fd_sc_hd__decap_8
XFILLER_7_57 vssd1 vssd1 vccd1 vccd1 sky130_fd_sc_hd__decap_12
XFILLER_16_33 vssd1 vssd1 vccd1 vccd1 sky130_fd_sc_hd__fill_1
XFILLER_12_114 vssd1 vssd1 vccd1 vccd1 sky130_fd_sc_hd__decap_4
XFILLER_4_58 vssd1 vssd1 vccd1 vccd1 sky130_fd_sc_hd__decap_6
Xbuffers\[16\]._0_ buffers\[16\]._0_/A vssd1 vssd1 vccd1 vccd1 buffers\[17\]._0_/A
+ sky130_fd_sc_hd__inv_2
XFILLER_24_55 vssd1 vssd1 vccd1 vccd1 sky130_fd_sc_hd__fill_1
X_160_ _162_/A _170_/A _157_/B vssd1 vssd1 vccd1 vccd1 _161_/B sky130_fd_sc_hd__o21ai_1
XTAP_92 vssd1 vccd1 sky130_fd_sc_hd__tapvpwrvgnd_1
Xinput3 a_input[2] vssd1 vssd1 vccd1 vccd1 _225_/B sky130_fd_sc_hd__clkbuf_1
XTAP_70 vssd1 vccd1 sky130_fd_sc_hd__tapvpwrvgnd_1
X_289_ _293_/A _293_/B vssd1 vssd1 vccd1 vccd1 _289_/Y sky130_fd_sc_hd__nand2_1
XTAP_81 vssd1 vccd1 sky130_fd_sc_hd__tapvpwrvgnd_1
XFILLER_19_99 vssd1 vssd1 vccd1 vccd1 sky130_fd_sc_hd__decap_4
XFILLER_19_55 vssd1 vssd1 vccd1 vccd1 sky130_fd_sc_hd__fill_1
X_212_ _225_/A vssd1 vssd1 vccd1 vccd1 _228_/A sky130_fd_sc_hd__dlymetal6s2s_1
X_143_ _286_/A vssd1 vssd1 vccd1 vccd1 _148_/A sky130_fd_sc_hd__buf_2
XFILLER_10_24 vssd1 vssd1 vccd1 vccd1 sky130_fd_sc_hd__decap_4
XFILLER_24_145 vssd1 vssd1 vccd1 vccd1 sky130_fd_sc_hd__decap_4
XFILLER_2_80 vssd1 vssd1 vccd1 vccd1 sky130_fd_sc_hd__decap_4
XFILLER_15_145 vssd1 vssd1 vccd1 vccd1 sky130_fd_sc_hd__decap_4
XPHY_9 vssd1 vssd1 vccd1 vccd1 sky130_fd_sc_hd__decap_3
XFILLER_7_69 vssd1 vssd1 vccd1 vccd1 sky130_fd_sc_hd__decap_12
XFILLER_8_108 vssd1 vssd1 vccd1 vccd1 sky130_fd_sc_hd__decap_4
XFILLER_4_15 vssd1 vssd1 vccd1 vccd1 sky130_fd_sc_hd__decap_6
XFILLER_4_144 vssd1 vssd1 vccd1 vccd1 sky130_fd_sc_hd__decap_4
XFILLER_13_68 vssd1 vssd1 vccd1 vccd1 sky130_fd_sc_hd__decap_12
XFILLER_1_136 vssd1 vssd1 vccd1 vccd1 sky130_fd_sc_hd__decap_6
XFILLER_1_27 vssd1 vssd1 vccd1 vccd1 sky130_fd_sc_hd__decap_4