* NGSPICE file created from instrumented_adder.ext - technology: sky130A

* Black-box entry subcircuit for sky130_fd_sc_hd__fill_1 abstract view
.subckt sky130_fd_sc_hd__fill_1 VGND VNB VPB VPWR
.ends

* Black-box entry subcircuit for sky130_fd_sc_hd__inv_2 abstract view
.subckt sky130_fd_sc_hd__inv_2 A VGND VNB VPB VPWR Y
.ends

* Black-box entry subcircuit for sky130_fd_sc_hd__a22o_1 abstract view
.subckt sky130_fd_sc_hd__a22o_1 A1 A2 B1 B2 VGND VNB VPB VPWR X
.ends

* Black-box entry subcircuit for sky130_fd_sc_hd__decap_4 abstract view
.subckt sky130_fd_sc_hd__decap_4 VGND VNB VPB VPWR
.ends

* Black-box entry subcircuit for sky130_fd_sc_hd__decap_12 abstract view
.subckt sky130_fd_sc_hd__decap_12 VGND VNB VPB VPWR
.ends

* Black-box entry subcircuit for sky130_fd_sc_hd__decap_8 abstract view
.subckt sky130_fd_sc_hd__decap_8 VGND VNB VPB VPWR
.ends

* Black-box entry subcircuit for sky130_fd_sc_hd__clkbuf_1 abstract view
.subckt sky130_fd_sc_hd__clkbuf_1 A VGND VNB VPB VPWR X
.ends

* Black-box entry subcircuit for sky130_fd_sc_hd__decap_3 abstract view
.subckt sky130_fd_sc_hd__decap_3 VGND VNB VPB VPWR
.ends

* Black-box entry subcircuit for sky130_fd_sc_hd__fill_2 abstract view
.subckt sky130_fd_sc_hd__fill_2 VGND VNB VPB VPWR
.ends

* Black-box entry subcircuit for sky130_fd_sc_hd__nor2_1 abstract view
.subckt sky130_fd_sc_hd__nor2_1 A B VGND VNB VPB VPWR Y
.ends

* Black-box entry subcircuit for sky130_fd_sc_hd__and2_1 abstract view
.subckt sky130_fd_sc_hd__and2_1 A B VGND VNB VPB VPWR X
.ends

* Black-box entry subcircuit for sky130_fd_sc_hd__or2_1 abstract view
.subckt sky130_fd_sc_hd__or2_1 A B VGND VNB VPB VPWR X
.ends

* Black-box entry subcircuit for sky130_fd_sc_hd__nand2_1 abstract view
.subckt sky130_fd_sc_hd__nand2_1 A B VGND VNB VPB VPWR Y
.ends

* Black-box entry subcircuit for sky130_fd_sc_hd__decap_6 abstract view
.subckt sky130_fd_sc_hd__decap_6 VGND VNB VPB VPWR
.ends

* Black-box entry subcircuit for sky130_fd_sc_hd__dfxtp_4 abstract view
.subckt sky130_fd_sc_hd__dfxtp_4 CLK D VGND VNB VPB VPWR Q
.ends

* Black-box entry subcircuit for sky130_fd_sc_hd__dfxtp_2 abstract view
.subckt sky130_fd_sc_hd__dfxtp_2 CLK D VGND VNB VPB VPWR Q
.ends

* Black-box entry subcircuit for sky130_fd_sc_hd__clkinv_2 abstract view
.subckt sky130_fd_sc_hd__clkinv_2 A VGND VNB VPB VPWR Y
.ends

* Black-box entry subcircuit for sky130_fd_sc_hd__nand2_4 abstract view
.subckt sky130_fd_sc_hd__nand2_4 A B VGND VNB VPB VPWR Y
.ends

* Black-box entry subcircuit for sky130_fd_sc_hd__clkbuf_16 abstract view
.subckt sky130_fd_sc_hd__clkbuf_16 A VGND VNB VPB VPWR X
.ends

* Black-box entry subcircuit for sky130_fd_sc_hd__clkbuf_2 abstract view
.subckt sky130_fd_sc_hd__clkbuf_2 A VGND VNB VPB VPWR X
.ends

* Black-box entry subcircuit for sky130_fd_sc_hd__o221a_1 abstract view
.subckt sky130_fd_sc_hd__o221a_1 A1 A2 B1 B2 C1 VGND VNB VPB VPWR X
.ends

* Black-box entry subcircuit for sky130_fd_sc_hd__dlymetal6s2s_1 abstract view
.subckt sky130_fd_sc_hd__dlymetal6s2s_1 A VGND VNB VPB VPWR X
.ends

* Black-box entry subcircuit for sky130_fd_sc_hd__dfrtp_4 abstract view
.subckt sky130_fd_sc_hd__dfrtp_4 CLK D RESET_B VGND VNB VPB VPWR Q
.ends

* Black-box entry subcircuit for sky130_fd_sc_hd__o21ai_1 abstract view
.subckt sky130_fd_sc_hd__o21ai_1 A1 A2 B1 VGND VNB VPB VPWR Y
.ends

* Black-box entry subcircuit for sky130_fd_sc_hd__o21a_1 abstract view
.subckt sky130_fd_sc_hd__o21a_1 A1 A2 B1 VGND VNB VPB VPWR X
.ends

* Black-box entry subcircuit for sky130_fd_sc_hd__a31o_1 abstract view
.subckt sky130_fd_sc_hd__a31o_1 A1 A2 A3 B1 VGND VNB VPB VPWR X
.ends

* Black-box entry subcircuit for sky130_fd_sc_hd__buf_2 abstract view
.subckt sky130_fd_sc_hd__buf_2 A VGND VNB VPB VPWR X
.ends

* Black-box entry subcircuit for sky130_fd_sc_hd__tapvpwrvgnd_1 abstract view
.subckt sky130_fd_sc_hd__tapvpwrvgnd_1 VGND VPWR
.ends

* Black-box entry subcircuit for sky130_fd_sc_hd__or4_1 abstract view
.subckt sky130_fd_sc_hd__or4_1 A B C D VGND VNB VPB VPWR X
.ends

* Black-box entry subcircuit for sky130_fd_sc_hd__xnor2_1 abstract view
.subckt sky130_fd_sc_hd__xnor2_1 A B VGND VNB VPB VPWR Y
.ends

* Black-box entry subcircuit for sky130_fd_sc_hd__and4_1 abstract view
.subckt sky130_fd_sc_hd__and4_1 A B C D VGND VNB VPB VPWR X
.ends

* Black-box entry subcircuit for sky130_fd_sc_hd__a21oi_1 abstract view
.subckt sky130_fd_sc_hd__a21oi_1 A1 A2 B1 VGND VNB VPB VPWR Y
.ends

* Black-box entry subcircuit for sky130_fd_sc_hd__o31ai_1 abstract view
.subckt sky130_fd_sc_hd__o31ai_1 A1 A2 A3 B1 VGND VNB VPB VPWR Y
.ends

* Black-box entry subcircuit for sky130_fd_sc_hd__and3_1 abstract view
.subckt sky130_fd_sc_hd__and3_1 A B C VGND VNB VPB VPWR X
.ends

* Black-box entry subcircuit for sky130_fd_sc_hd__xor2_1 abstract view
.subckt sky130_fd_sc_hd__xor2_1 A B VGND VNB VPB VPWR X
.ends

* Black-box entry subcircuit for sky130_fd_sc_hd__a221o_1 abstract view
.subckt sky130_fd_sc_hd__a221o_1 A1 A2 B1 B2 C1 VGND VNB VPB VPWR X
.ends

* Black-box entry subcircuit for sky130_fd_sc_hd__a21boi_1 abstract view
.subckt sky130_fd_sc_hd__a21boi_1 A1 A2 B1_N VGND VNB VPB VPWR Y
.ends

* Black-box entry subcircuit for sky130_fd_sc_hd__o221ai_1 abstract view
.subckt sky130_fd_sc_hd__o221ai_1 A1 A2 B1 B2 C1 VGND VNB VPB VPWR Y
.ends

* Black-box entry subcircuit for sky130_fd_sc_hd__or3_1 abstract view
.subckt sky130_fd_sc_hd__or3_1 A B C VGND VNB VPB VPWR X
.ends

* Black-box entry subcircuit for sky130_fd_sc_hd__and2b_1 abstract view
.subckt sky130_fd_sc_hd__and2b_1 A_N B VGND VNB VPB VPWR X
.ends

.subckt instrumented_adder b[0] b[1] b[2] b[3] b[4] b[5] b[6] b[7] bypass chain clk
+ counter_out[0] counter_out[1] counter_out[2] counter_out[3] counter_out[4] counter_out[5]
+ counter_out[6] counter_out[7] counter_start[0] counter_start[1] counter_start[2]
+ counter_start[3] counter_start[4] counter_start[5] counter_start[6] counter_start[7]
+ extra_inverter reset ring_osc_counter_out[0] ring_osc_counter_out[1] ring_osc_counter_out[2]
+ ring_osc_counter_out[3] ring_osc_counter_out[4] ring_osc_counter_out[5] ring_osc_counter_out[6]
+ ring_osc_counter_out[7] run time_count_overflow vccd1 vssd1
XFILLER_13_111 vssd1 vssd1 vccd1 vccd1 sky130_fd_sc_hd__fill_1
Xbuffers\[6\]._0_ buffers\[6\]._0_/A vssd1 vssd1 vccd1 vccd1 buffers\[7\]._0_/A sky130_fd_sc_hd__inv_2
X_131_ _088_/A input3/X _093_/A _130_/Y vssd1 vssd1 vccd1 vccd1 _165_/D sky130_fd_sc_hd__a22o_1
XFILLER_0_79 vssd1 vssd1 vccd1 vccd1 sky130_fd_sc_hd__decap_4
XFILLER_0_68 vssd1 vssd1 vccd1 vccd1 sky130_fd_sc_hd__fill_1
XFILLER_9_22 vssd1 vssd1 vccd1 vccd1 sky130_fd_sc_hd__decap_4
XFILLER_9_33 vssd1 vssd1 vccd1 vccd1 sky130_fd_sc_hd__decap_4
XFILLER_9_44 vssd1 vssd1 vccd1 vccd1 sky130_fd_sc_hd__decap_12
XFILLER_18_75 vssd1 vssd1 vccd1 vccd1 sky130_fd_sc_hd__decap_8
X_114_ _114_/A vssd1 vssd1 vccd1 vccd1 _161_/D sky130_fd_sc_hd__clkbuf_1
XFILLER_6_56 vssd1 vssd1 vccd1 vccd1 sky130_fd_sc_hd__decap_3
XFILLER_13_3 vssd1 vssd1 vccd1 vccd1 sky130_fd_sc_hd__decap_12
XFILLER_15_32 vssd1 vssd1 vccd1 vccd1 sky130_fd_sc_hd__fill_2
XFILLER_3_13 vssd1 vssd1 vccd1 vccd1 sky130_fd_sc_hd__decap_4
XFILLER_3_35 vssd1 vssd1 vccd1 vccd1 sky130_fd_sc_hd__decap_4
XFILLER_3_79 vssd1 vssd1 vccd1 vccd1 sky130_fd_sc_hd__decap_4
XFILLER_10_115 vssd1 vssd1 vccd1 vccd1 sky130_fd_sc_hd__fill_1
X_130_ _153_/A counter_out[0] vssd1 vssd1 vccd1 vccd1 _130_/Y sky130_fd_sc_hd__nor2_1
XFILLER_2_111 vssd1 vssd1 vccd1 vccd1 sky130_fd_sc_hd__decap_4
XFILLER_0_47 vssd1 vssd1 vccd1 vccd1 sky130_fd_sc_hd__fill_2
XFILLER_0_14 vssd1 vssd1 vccd1 vccd1 sky130_fd_sc_hd__decap_4
Xbuffers\[5\]._0_ buffers\[5\]._0_/A vssd1 vssd1 vccd1 vccd1 buffers\[6\]._0_/A sky130_fd_sc_hd__inv_2
X_113_ _115_/B _113_/B vssd1 vssd1 vccd1 vccd1 _114_/A sky130_fd_sc_hd__and2_1
XFILLER_15_44 vssd1 vssd1 vccd1 vccd1 sky130_fd_sc_hd__decap_12
XFILLER_15_99 vssd1 vssd1 vccd1 vccd1 sky130_fd_sc_hd__decap_12
XFILLER_13_113 vssd1 vssd1 vccd1 vccd1 sky130_fd_sc_hd__decap_3
XFILLER_3_3 vssd1 vssd1 vccd1 vccd1 sky130_fd_sc_hd__decap_4
XFILLER_9_68 vssd1 vssd1 vccd1 vccd1 sky130_fd_sc_hd__decap_8
X_112_ ring_osc_counter_out[4] _116_/D vssd1 vssd1 vccd1 vccd1 _113_/B sky130_fd_sc_hd__or2_1
XFILLER_1_91 vssd1 vssd1 vccd1 vccd1 sky130_fd_sc_hd__decap_12
Xbuffers\[4\]._0_ buffers\[4\]._0_/A vssd1 vssd1 vccd1 vccd1 buffers\[5\]._0_/A sky130_fd_sc_hd__inv_2
XFILLER_6_69 vssd1 vssd1 vccd1 vccd1 sky130_fd_sc_hd__decap_12
XFILLER_12_24 vssd1 vssd1 vccd1 vccd1 sky130_fd_sc_hd__decap_4
XFILLER_12_35 vssd1 vssd1 vccd1 vccd1 sky130_fd_sc_hd__decap_12
XFILLER_0_27 vssd1 vssd1 vccd1 vccd1 sky130_fd_sc_hd__fill_1
X_111_ ring_osc_counter_out[4] _116_/D vssd1 vssd1 vccd1 vccd1 _115_/B sky130_fd_sc_hd__nand2_1
XFILLER_1_70 vssd1 vssd1 vccd1 vccd1 sky130_fd_sc_hd__decap_4
XFILLER_6_48 vssd1 vssd1 vccd1 vccd1 sky130_fd_sc_hd__decap_8
XFILLER_15_24 vssd1 vssd1 vccd1 vccd1 sky130_fd_sc_hd__decap_8
XFILLER_15_57 vssd1 vssd1 vccd1 vccd1 sky130_fd_sc_hd__decap_4
XFILLER_11_3 vssd1 vssd1 vccd1 vccd1 sky130_fd_sc_hd__decap_8
Xbuffers\[3\]._0_ buffers\[3\]._0_/A vssd1 vssd1 vccd1 vccd1 buffers\[4\]._0_/A sky130_fd_sc_hd__inv_2
XFILLER_7_80 vssd1 vssd1 vccd1 vccd1 sky130_fd_sc_hd__decap_4
XFILLER_3_49 vssd1 vssd1 vccd1 vccd1 sky130_fd_sc_hd__decap_6
XFILLER_9_108 vssd1 vssd1 vccd1 vccd1 sky130_fd_sc_hd__decap_4
XFILLER_5_111 vssd1 vssd1 vccd1 vccd1 sky130_fd_sc_hd__fill_1
XFILLER_12_47 vssd1 vssd1 vccd1 vccd1 sky130_fd_sc_hd__fill_2
XFILLER_12_69 vssd1 vssd1 vccd1 vccd1 sky130_fd_sc_hd__decap_4
XFILLER_0_39 vssd1 vssd1 vccd1 vccd1 sky130_fd_sc_hd__decap_8
XFILLER_18_68 vssd1 vssd1 vccd1 vccd1 sky130_fd_sc_hd__decap_4
XFILLER_18_24 vssd1 vssd1 vccd1 vccd1 sky130_fd_sc_hd__decap_4
X_110_ _116_/D _110_/B vssd1 vssd1 vccd1 vccd1 _160_/D sky130_fd_sc_hd__nor2_1
XFILLER_3_17 vssd1 vssd1 vccd1 vccd1 sky130_fd_sc_hd__fill_1
XFILLER_3_28 vssd1 vssd1 vccd1 vccd1 sky130_fd_sc_hd__decap_4
XFILLER_13_105 vssd1 vssd1 vccd1 vccd1 sky130_fd_sc_hd__decap_6
Xbuffers\[2\]._0_ buffers\[2\]._0_/A vssd1 vssd1 vccd1 vccd1 buffers\[3\]._0_/A sky130_fd_sc_hd__inv_2
XFILLER_2_115 vssd1 vssd1 vccd1 vccd1 sky130_fd_sc_hd__fill_1
X_169_ _172_/CLK _169_/D vssd1 vssd1 vccd1 vccd1 counter_out[4] sky130_fd_sc_hd__dfxtp_4
XFILLER_15_15 vssd1 vssd1 vccd1 vccd1 sky130_fd_sc_hd__decap_4
XPHY_0 vssd1 vssd1 vccd1 vccd1 sky130_fd_sc_hd__decap_3
XFILLER_16_80 vssd1 vssd1 vccd1 vccd1 sky130_fd_sc_hd__decap_4
XFILLER_8_110 vssd1 vssd1 vccd1 vccd1 sky130_fd_sc_hd__decap_6
XFILLER_5_113 vssd1 vssd1 vccd1 vccd1 sky130_fd_sc_hd__decap_3
XFILLER_4_61 vssd1 vssd1 vccd1 vccd1 sky130_fd_sc_hd__fill_2
XFILLER_4_83 vssd1 vssd1 vccd1 vccd1 sky130_fd_sc_hd__fill_1
XFILLER_3_7 vssd1 vssd1 vccd1 vccd1 sky130_fd_sc_hd__fill_1
X_168_ _171_/CLK _168_/D vssd1 vssd1 vccd1 vccd1 counter_out[3] sky130_fd_sc_hd__dfxtp_2
Xbuffers\[1\]._0_ buffers\[1\]._0_/A vssd1 vssd1 vccd1 vccd1 buffers\[2\]._0_/A sky130_fd_sc_hd__inv_2
X_099_ ring_osc_counter_out[0] vssd1 vssd1 vccd1 vccd1 _157_/D sky130_fd_sc_hd__clkinv_2
XFILLER_1_84 vssd1 vssd1 vccd1 vccd1 sky130_fd_sc_hd__decap_4
XFILLER_10_93 vssd1 vssd1 vccd1 vccd1 sky130_fd_sc_hd__decap_3
XFILLER_16_115 vssd1 vssd1 vccd1 vccd1 sky130_fd_sc_hd__fill_1
XPHY_1 vssd1 vssd1 vccd1 vccd1 sky130_fd_sc_hd__decap_3
XFILLER_5_103 vssd1 vssd1 vccd1 vccd1 sky130_fd_sc_hd__decap_8
X_098_ _124_/A _124_/B vssd1 vssd1 vccd1 vccd1 chain sky130_fd_sc_hd__nand2_4
X_167_ _172_/CLK _167_/D vssd1 vssd1 vccd1 vccd1 counter_out[2] sky130_fd_sc_hd__dfxtp_4
XFILLER_1_63 vssd1 vssd1 vccd1 vccd1 sky130_fd_sc_hd__decap_4
XFILLER_19_113 vssd1 vssd1 vccd1 vccd1 sky130_fd_sc_hd__decap_3
XFILLER_10_72 vssd1 vssd1 vccd1 vccd1 sky130_fd_sc_hd__decap_4
XFILLER_10_83 vssd1 vssd1 vccd1 vccd1 sky130_fd_sc_hd__fill_1
XFILLER_19_81 vssd1 vssd1 vccd1 vccd1 sky130_fd_sc_hd__decap_3
Xbuffers\[0\]._0_ _103_/Y vssd1 vssd1 vccd1 vccd1 buffers\[1\]._0_/A sky130_fd_sc_hd__inv_2
XPHY_2 vssd1 vssd1 vccd1 vccd1 sky130_fd_sc_hd__decap_3
Xclkbuf_0_clk clk vssd1 vssd1 vccd1 vccd1 clkbuf_0_clk/X sky130_fd_sc_hd__clkbuf_16
XFILLER_7_95 vssd1 vssd1 vccd1 vccd1 sky130_fd_sc_hd__decap_6
XFILLER_4_85 vssd1 vssd1 vccd1 vccd1 sky130_fd_sc_hd__decap_6
XFILLER_13_61 vssd1 vssd1 vccd1 vccd1 sky130_fd_sc_hd__fill_1
X_166_ _172_/CLK _166_/D vssd1 vssd1 vccd1 vccd1 counter_out[1] sky130_fd_sc_hd__dfxtp_4
XFILLER_1_31 vssd1 vssd1 vccd1 vccd1 sky130_fd_sc_hd__decap_4
X_097_ _128_/B vssd1 vssd1 vccd1 vccd1 _124_/B sky130_fd_sc_hd__clkbuf_2
XFILLER_19_93 vssd1 vssd1 vccd1 vccd1 sky130_fd_sc_hd__fill_1
X_149_ _153_/A _092_/A _146_/X _147_/Y _148_/X vssd1 vssd1 vccd1 vccd1 _170_/D sky130_fd_sc_hd__o221a_1
XPHY_3 vssd1 vssd1 vccd1 vccd1 sky130_fd_sc_hd__decap_3
XFILLER_7_52 vssd1 vssd1 vccd1 vccd1 sky130_fd_sc_hd__decap_4
XFILLER_4_20 vssd1 vssd1 vccd1 vccd1 sky130_fd_sc_hd__decap_8
XFILLER_4_53 vssd1 vssd1 vccd1 vccd1 sky130_fd_sc_hd__decap_8
XFILLER_4_75 vssd1 vssd1 vccd1 vccd1 sky130_fd_sc_hd__decap_8
XFILLER_18_29 vssd1 vssd1 vccd1 vccd1 sky130_fd_sc_hd__decap_12
X_165_ _171_/CLK _165_/D vssd1 vssd1 vccd1 vccd1 counter_out[0] sky130_fd_sc_hd__dfxtp_4
X_096_ _096_/A vssd1 vssd1 vccd1 vccd1 _128_/B sky130_fd_sc_hd__dlymetal6s2s_1
XFILLER_10_63 vssd1 vssd1 vccd1 vccd1 sky130_fd_sc_hd__decap_3
XFILLER_10_85 vssd1 vssd1 vccd1 vccd1 sky130_fd_sc_hd__decap_8
X_148_ _148_/A _148_/B vssd1 vssd1 vccd1 vccd1 _148_/X sky130_fd_sc_hd__or2_1
X_079_ _129_/A vssd1 vssd1 vccd1 vccd1 _155_/A sky130_fd_sc_hd__dlymetal6s2s_1
XFILLER_16_107 vssd1 vssd1 vccd1 vccd1 sky130_fd_sc_hd__decap_8
XPHY_4 vssd1 vssd1 vccd1 vccd1 sky130_fd_sc_hd__decap_3
XFILLER_16_95 vssd1 vssd1 vccd1 vccd1 sky130_fd_sc_hd__decap_12
XFILLER_16_51 vssd1 vssd1 vccd1 vccd1 sky130_fd_sc_hd__decap_4
XFILLER_8_103 vssd1 vssd1 vccd1 vccd1 sky130_fd_sc_hd__decap_4
Xbuffers\[19\]._0_ buffers\[19\]._0_/A vssd1 vssd1 vccd1 vccd1 buffers\[20\]._0_/A
+ sky130_fd_sc_hd__inv_2
XFILLER_1_77 vssd1 vssd1 vccd1 vccd1 sky130_fd_sc_hd__decap_4
XFILLER_1_44 vssd1 vssd1 vccd1 vccd1 sky130_fd_sc_hd__fill_1
X_095_ _128_/A vssd1 vssd1 vccd1 vccd1 _124_/A sky130_fd_sc_hd__clkbuf_2
X_164_ _128_/Y _164_/D _151_/A vssd1 vssd1 vccd1 vccd1 ring_osc_counter_out[7] sky130_fd_sc_hd__dfrtp_4
XFILLER_18_3 vssd1 vssd1 vccd1 vccd1 sky130_fd_sc_hd__fill_2
X_078_ _148_/A vssd1 vssd1 vccd1 vccd1 _151_/A sky130_fd_sc_hd__clkbuf_2
X_147_ _152_/B _152_/C _148_/A vssd1 vssd1 vccd1 vccd1 _147_/Y sky130_fd_sc_hd__o21ai_1
XPHY_5 vssd1 vssd1 vccd1 vccd1 sky130_fd_sc_hd__decap_3
XFILLER_7_32 vssd1 vssd1 vccd1 vccd1 sky130_fd_sc_hd__fill_1
XFILLER_16_85 vssd1 vssd1 vccd1 vccd1 sky130_fd_sc_hd__decap_3
XFILLER_16_41 vssd1 vssd1 vccd1 vccd1 sky130_fd_sc_hd__decap_4
XFILLER_4_44 vssd1 vssd1 vccd1 vccd1 sky130_fd_sc_hd__decap_4
X_094_ _094_/A vssd1 vssd1 vccd1 vccd1 _128_/A sky130_fd_sc_hd__clkbuf_2
X_163_ _127_/Y _163_/D _081_/Y vssd1 vssd1 vccd1 vccd1 ring_osc_counter_out[6] sky130_fd_sc_hd__dfrtp_4
XFILLER_19_85 vssd1 vssd1 vccd1 vccd1 sky130_fd_sc_hd__decap_8
XFILLER_19_41 vssd1 vssd1 vccd1 vccd1 sky130_fd_sc_hd__decap_12
Xbuffers\[18\]._0_ buffers\[18\]._0_/A vssd1 vssd1 vccd1 vccd1 buffers\[19\]._0_/A
+ sky130_fd_sc_hd__inv_2
X_077_ _129_/A vssd1 vssd1 vccd1 vccd1 _148_/A sky130_fd_sc_hd__inv_2
X_146_ counter_out[4] _152_/B counter_out[5] vssd1 vssd1 vccd1 vccd1 _146_/X sky130_fd_sc_hd__o21a_1
XPHY_6 vssd1 vssd1 vccd1 vccd1 sky130_fd_sc_hd__decap_3
XFILLER_7_88 vssd1 vssd1 vccd1 vccd1 sky130_fd_sc_hd__decap_4
X_129_ _129_/A vssd1 vssd1 vccd1 vccd1 _153_/A sky130_fd_sc_hd__clkbuf_2
XFILLER_16_20 vssd1 vssd1 vccd1 vccd1 sky130_fd_sc_hd__decap_8
XFILLER_4_67 vssd1 vssd1 vccd1 vccd1 sky130_fd_sc_hd__decap_4
XFILLER_8_3 vssd1 vssd1 vccd1 vccd1 sky130_fd_sc_hd__decap_12
XFILLER_13_65 vssd1 vssd1 vccd1 vccd1 sky130_fd_sc_hd__decap_4
XFILLER_13_98 vssd1 vssd1 vccd1 vccd1 sky130_fd_sc_hd__decap_4
X_162_ _126_/Y _162_/D _082_/Y vssd1 vssd1 vccd1 vccd1 ring_osc_counter_out[5] sky130_fd_sc_hd__dfrtp_4
X_093_ _093_/A vssd1 vssd1 vccd1 vccd1 time_count_overflow sky130_fd_sc_hd__inv_2
XFILLER_1_24 vssd1 vssd1 vccd1 vccd1 sky130_fd_sc_hd__decap_4
XFILLER_1_13 vssd1 vssd1 vccd1 vccd1 sky130_fd_sc_hd__decap_4
XFILLER_19_53 vssd1 vssd1 vccd1 vccd1 sky130_fd_sc_hd__decap_3
XFILLER_19_20 vssd1 vssd1 vccd1 vccd1 sky130_fd_sc_hd__decap_8
Xinput1 b[0] vssd1 vssd1 vccd1 vccd1 input1/X sky130_fd_sc_hd__clkbuf_1
XFILLER_10_55 vssd1 vssd1 vccd1 vccd1 sky130_fd_sc_hd__decap_8
XFILLER_10_99 vssd1 vssd1 vccd1 vccd1 sky130_fd_sc_hd__decap_12
XFILLER_19_97 vssd1 vssd1 vccd1 vccd1 sky130_fd_sc_hd__decap_8
X_145_ _151_/A _092_/A _143_/Y _144_/X vssd1 vssd1 vccd1 vccd1 _169_/D sky130_fd_sc_hd__a31o_1
XPHY_7 vssd1 vssd1 vccd1 vccd1 sky130_fd_sc_hd__decap_3
Xbuffers\[17\]._0_ buffers\[17\]._0_/A vssd1 vssd1 vccd1 vccd1 buffers\[18\]._0_/A
+ sky130_fd_sc_hd__inv_2
XFILLER_7_23 vssd1 vssd1 vccd1 vccd1 sky130_fd_sc_hd__fill_2
X_128_ _128_/A _128_/B vssd1 vssd1 vccd1 vccd1 _128_/Y sky130_fd_sc_hd__nand2_1
XFILLER_16_76 vssd1 vssd1 vccd1 vccd1 sky130_fd_sc_hd__fill_1
XFILLER_12_102 vssd1 vssd1 vccd1 vccd1 sky130_fd_sc_hd__decap_12
XFILLER_4_35 vssd1 vssd1 vccd1 vccd1 sky130_fd_sc_hd__decap_4
XFILLER_13_55 vssd1 vssd1 vccd1 vccd1 sky130_fd_sc_hd__fill_1
XFILLER_13_77 vssd1 vssd1 vccd1 vccd1 sky130_fd_sc_hd__decap_12
X_161_ _125_/Y _161_/D _083_/Y vssd1 vssd1 vccd1 vccd1 ring_osc_counter_out[4] sky130_fd_sc_hd__dfrtp_4
X_092_ _092_/A vssd1 vssd1 vccd1 vccd1 _093_/A sky130_fd_sc_hd__buf_2
XTAP_80 vssd1 vccd1 sky130_fd_sc_hd__tapvpwrvgnd_1
Xinput2 bypass vssd1 vssd1 vccd1 vccd1 input2/X sky130_fd_sc_hd__dlymetal6s2s_1
XFILLER_19_108 vssd1 vssd1 vccd1 vccd1 sky130_fd_sc_hd__decap_4
X_144_ _155_/A _144_/B vssd1 vssd1 vccd1 vccd1 _144_/X sky130_fd_sc_hd__and2_1
XFILLER_16_3 vssd1 vssd1 vccd1 vccd1 sky130_fd_sc_hd__decap_8
XFILLER_15_111 vssd1 vssd1 vccd1 vccd1 sky130_fd_sc_hd__fill_1
XPHY_8 vssd1 vssd1 vccd1 vccd1 sky130_fd_sc_hd__decap_3
X_127_ _128_/A _128_/B vssd1 vssd1 vccd1 vccd1 _127_/Y sky130_fd_sc_hd__nand2_1
XFILLER_16_55 vssd1 vssd1 vccd1 vccd1 sky130_fd_sc_hd__fill_1
XFILLER_16_33 vssd1 vssd1 vccd1 vccd1 sky130_fd_sc_hd__fill_1
XFILLER_16_11 vssd1 vssd1 vccd1 vccd1 sky130_fd_sc_hd__fill_2
XFILLER_12_114 vssd1 vssd1 vccd1 vccd1 sky130_fd_sc_hd__fill_2
XFILLER_4_14 vssd1 vssd1 vccd1 vccd1 sky130_fd_sc_hd__decap_3
Xbuffers\[16\]._0_ buffers\[16\]._0_/A vssd1 vssd1 vccd1 vccd1 buffers\[17\]._0_/A
+ sky130_fd_sc_hd__inv_2
XFILLER_1_113 vssd1 vssd1 vccd1 vccd1 sky130_fd_sc_hd__decap_3
XFILLER_13_89 vssd1 vssd1 vccd1 vccd1 sky130_fd_sc_hd__decap_6
XFILLER_1_48 vssd1 vssd1 vccd1 vccd1 sky130_fd_sc_hd__decap_8
X_091_ counter_out[6] counter_out[7] _139_/A _152_/C vssd1 vssd1 vccd1 vccd1 _092_/A
+ sky130_fd_sc_hd__or4_1
X_160_ _124_/Y _160_/D _084_/Y vssd1 vssd1 vccd1 vccd1 ring_osc_counter_out[3] sky130_fd_sc_hd__dfrtp_4
Xinput3 counter_start[0] vssd1 vssd1 vccd1 vccd1 input3/X sky130_fd_sc_hd__clkbuf_1
XTAP_81 vssd1 vccd1 sky130_fd_sc_hd__tapvpwrvgnd_1
XTAP_70 vssd1 vccd1 sky130_fd_sc_hd__tapvpwrvgnd_1
X_143_ counter_out[4] _152_/B vssd1 vssd1 vccd1 vccd1 _143_/Y sky130_fd_sc_hd__xnor2_1
XFILLER_10_46 vssd1 vssd1 vccd1 vccd1 sky130_fd_sc_hd__decap_4
XFILLER_10_79 vssd1 vssd1 vccd1 vccd1 sky130_fd_sc_hd__decap_4
XPHY_9 vssd1 vssd1 vccd1 vccd1 sky130_fd_sc_hd__decap_3
XFILLER_7_36 vssd1 vssd1 vccd1 vccd1 sky130_fd_sc_hd__decap_12
X_126_ _128_/A _128_/B vssd1 vssd1 vccd1 vccd1 _126_/Y sky130_fd_sc_hd__nand2_1
X_109_ ring_osc_counter_out[3] _109_/B vssd1 vssd1 vccd1 vccd1 _110_/B sky130_fd_sc_hd__nor2_1
XFILLER_4_48 vssd1 vssd1 vccd1 vccd1 sky130_fd_sc_hd__fill_1
XFILLER_4_100 vssd1 vssd1 vccd1 vccd1 sky130_fd_sc_hd__decap_12
XFILLER_1_103 vssd1 vssd1 vccd1 vccd1 sky130_fd_sc_hd__fill_2
XFILLER_13_57 vssd1 vssd1 vccd1 vccd1 sky130_fd_sc_hd__decap_4
Xbuffers\[15\]._0_ buffers\[15\]._0_/A vssd1 vssd1 vccd1 vccd1 buffers\[16\]._0_/A
+ sky130_fd_sc_hd__inv_2
XFILLER_1_38 vssd1 vssd1 vccd1 vccd1 sky130_fd_sc_hd__decap_6
X_090_ counter_out[5] counter_out[4] vssd1 vssd1 vccd1 vccd1 _152_/C sky130_fd_sc_hd__or2_1
XTAP_82 vssd1 vccd1 sky130_fd_sc_hd__tapvpwrvgnd_1
Xinput4 counter_start[1] vssd1 vssd1 vccd1 vccd1 input4/X sky130_fd_sc_hd__clkbuf_1
XTAP_60 vssd1 vccd1 sky130_fd_sc_hd__tapvpwrvgnd_1
XTAP_71 vssd1 vccd1 sky130_fd_sc_hd__tapvpwrvgnd_1
X_142_ _088_/A input6/X _093_/A _141_/Y vssd1 vssd1 vccd1 vccd1 _168_/D sky130_fd_sc_hd__a22o_1
XFILLER_2_92 vssd1 vssd1 vccd1 vccd1 sky130_fd_sc_hd__decap_4
XFILLER_2_70 vssd1 vssd1 vccd1 vccd1 sky130_fd_sc_hd__fill_1
XFILLER_15_113 vssd1 vssd1 vccd1 vccd1 sky130_fd_sc_hd__decap_3
XFILLER_7_15 vssd1 vssd1 vccd1 vccd1 sky130_fd_sc_hd__decap_8
XFILLER_7_48 vssd1 vssd1 vccd1 vccd1 sky130_fd_sc_hd__fill_1
X_125_ _128_/A _128_/B vssd1 vssd1 vccd1 vccd1 _125_/Y sky130_fd_sc_hd__nand2_1
XFILLER_16_68 vssd1 vssd1 vccd1 vccd1 sky130_fd_sc_hd__decap_8
X_108_ ring_osc_counter_out[0] ring_osc_counter_out[1] ring_osc_counter_out[2] ring_osc_counter_out[3]
+ vssd1 vssd1 vccd1 vccd1 _116_/D sky130_fd_sc_hd__and4_1
XFILLER_4_112 vssd1 vssd1 vccd1 vccd1 sky130_fd_sc_hd__decap_4
XFILLER_13_47 vssd1 vssd1 vccd1 vccd1 sky130_fd_sc_hd__decap_8
XFILLER_13_69 vssd1 vssd1 vccd1 vccd1 sky130_fd_sc_hd__fill_1
XFILLER_5_81 vssd1 vssd1 vccd1 vccd1 sky130_fd_sc_hd__decap_8
Xinput5 counter_start[2] vssd1 vssd1 vccd1 vccd1 _137_/B sky130_fd_sc_hd__clkbuf_1
XTAP_83 vssd1 vccd1 sky130_fd_sc_hd__tapvpwrvgnd_1
XFILLER_19_57 vssd1 vssd1 vccd1 vccd1 sky130_fd_sc_hd__decap_12
XFILLER_19_13 vssd1 vssd1 vccd1 vccd1 sky130_fd_sc_hd__decap_4
XTAP_50 vssd1 vccd1 sky130_fd_sc_hd__tapvpwrvgnd_1
XTAP_61 vssd1 vccd1 sky130_fd_sc_hd__tapvpwrvgnd_1
XFILLER_10_15 vssd1 vssd1 vccd1 vccd1 sky130_fd_sc_hd__decap_12
XTAP_72 vssd1 vccd1 sky130_fd_sc_hd__tapvpwrvgnd_1
X_141_ _152_/B _140_/Y _153_/A vssd1 vssd1 vccd1 vccd1 _141_/Y sky130_fd_sc_hd__a21oi_1
XFILLER_2_82 vssd1 vssd1 vccd1 vccd1 sky130_fd_sc_hd__fill_2
Xbuffers\[14\]._0_ buffers\[14\]._0_/A vssd1 vssd1 vccd1 vccd1 buffers\[15\]._0_/A
+ sky130_fd_sc_hd__inv_2
X_124_ _124_/A _124_/B vssd1 vssd1 vccd1 vccd1 _124_/Y sky130_fd_sc_hd__nand2_1
X_107_ _109_/B _107_/B vssd1 vssd1 vccd1 vccd1 _159_/D sky130_fd_sc_hd__nor2_1
XFILLER_14_3 vssd1 vssd1 vccd1 vccd1 sky130_fd_sc_hd__decap_4
XFILLER_8_92 vssd1 vssd1 vccd1 vccd1 sky130_fd_sc_hd__decap_8
XFILLER_4_39 vssd1 vssd1 vccd1 vccd1 sky130_fd_sc_hd__fill_1
XFILLER_13_15 vssd1 vssd1 vccd1 vccd1 sky130_fd_sc_hd__decap_8
XFILLER_5_93 vssd1 vssd1 vccd1 vccd1 sky130_fd_sc_hd__decap_6
XFILLER_19_69 vssd1 vssd1 vccd1 vccd1 sky130_fd_sc_hd__decap_12
Xinput6 counter_start[3] vssd1 vssd1 vccd1 vccd1 input6/X sky130_fd_sc_hd__clkbuf_1
XTAP_73 vssd1 vccd1 sky130_fd_sc_hd__tapvpwrvgnd_1
XTAP_40 vssd1 vccd1 sky130_fd_sc_hd__tapvpwrvgnd_1
XTAP_51 vssd1 vccd1 sky130_fd_sc_hd__tapvpwrvgnd_1
XFILLER_10_27 vssd1 vssd1 vccd1 vccd1 sky130_fd_sc_hd__fill_1
XTAP_62 vssd1 vccd1 sky130_fd_sc_hd__tapvpwrvgnd_1
XFILLER_18_112 vssd1 vssd1 vccd1 vccd1 sky130_fd_sc_hd__decap_4
X_140_ counter_out[2] counter_out[0] counter_out[1] counter_out[3] vssd1 vssd1 vccd1
+ vccd1 _140_/Y sky130_fd_sc_hd__o31ai_1
XFILLER_7_28 vssd1 vssd1 vccd1 vccd1 sky130_fd_sc_hd__decap_4
X_123_ _124_/A _124_/B vssd1 vssd1 vccd1 vccd1 _123_/Y sky130_fd_sc_hd__nand2_1
XFILLER_16_59 vssd1 vssd1 vccd1 vccd1 sky130_fd_sc_hd__decap_4
Xbuffers\[13\]._0_ buffers\[13\]._0_/A vssd1 vssd1 vccd1 vccd1 buffers\[14\]._0_/A
+ sky130_fd_sc_hd__inv_2
X_106_ ring_osc_counter_out[0] ring_osc_counter_out[1] ring_osc_counter_out[2] vssd1
+ vssd1 vccd1 vccd1 _107_/B sky130_fd_sc_hd__a21oi_1
XFILLER_8_82 vssd1 vssd1 vccd1 vccd1 sky130_fd_sc_hd__fill_2
XFILLER_4_29 vssd1 vssd1 vccd1 vccd1 sky130_fd_sc_hd__decap_3
XFILLER_13_27 vssd1 vssd1 vccd1 vccd1 sky130_fd_sc_hd__decap_12
XTAP_74 vssd1 vccd1 sky130_fd_sc_hd__tapvpwrvgnd_1
Xinput7 counter_start[4] vssd1 vssd1 vccd1 vccd1 _144_/B sky130_fd_sc_hd__clkbuf_1
XTAP_41 vssd1 vccd1 sky130_fd_sc_hd__tapvpwrvgnd_1
XTAP_52 vssd1 vccd1 sky130_fd_sc_hd__tapvpwrvgnd_1
XTAP_63 vssd1 vccd1 sky130_fd_sc_hd__tapvpwrvgnd_1
XFILLER_2_62 vssd1 vssd1 vccd1 vccd1 sky130_fd_sc_hd__decap_8
Xclkbuf_1_1_0_clk clkbuf_0_clk/X vssd1 vssd1 vccd1 vccd1 _171_/CLK sky130_fd_sc_hd__clkbuf_2
X_122_ _124_/A _124_/B vssd1 vssd1 vccd1 vccd1 _122_/Y sky130_fd_sc_hd__nand2_1
Xinput10 counter_start[7] vssd1 vssd1 vccd1 vccd1 _155_/B sky130_fd_sc_hd__clkbuf_1
X_105_ ring_osc_counter_out[0] ring_osc_counter_out[1] ring_osc_counter_out[2] vssd1
+ vssd1 vccd1 vccd1 _109_/B sky130_fd_sc_hd__and3_1
Xbuffers\[12\]._0_ buffers\[12\]._0_/A vssd1 vssd1 vccd1 vccd1 buffers\[13\]._0_/A
+ sky130_fd_sc_hd__inv_2
XFILLER_13_39 vssd1 vssd1 vccd1 vccd1 sky130_fd_sc_hd__decap_3
XFILLER_5_40 vssd1 vssd1 vccd1 vccd1 sky130_fd_sc_hd__decap_4
Xinput8 counter_start[5] vssd1 vssd1 vccd1 vccd1 _148_/B sky130_fd_sc_hd__clkbuf_1
XTAP_75 vssd1 vccd1 sky130_fd_sc_hd__tapvpwrvgnd_1
XTAP_42 vssd1 vccd1 sky130_fd_sc_hd__tapvpwrvgnd_1
XTAP_53 vssd1 vccd1 sky130_fd_sc_hd__tapvpwrvgnd_1
XTAP_64 vssd1 vccd1 sky130_fd_sc_hd__tapvpwrvgnd_1
XFILLER_10_29 vssd1 vssd1 vccd1 vccd1 sky130_fd_sc_hd__decap_8
XFILLER_2_74 vssd1 vssd1 vccd1 vccd1 sky130_fd_sc_hd__decap_8
X_121_ _124_/A _124_/B vssd1 vssd1 vccd1 vccd1 _121_/Y sky130_fd_sc_hd__nand2_1
Xinput11 extra_inverter vssd1 vssd1 vccd1 vccd1 _103_/A sky130_fd_sc_hd__clkbuf_1
X_104_ ring_osc_counter_out[0] ring_osc_counter_out[1] vssd1 vssd1 vccd1 vccd1 _158_/D
+ sky130_fd_sc_hd__xor2_1
XFILLER_7_113 vssd1 vssd1 vccd1 vccd1 sky130_fd_sc_hd__decap_3
Xclkbuf_1_0_0_clk clkbuf_0_clk/X vssd1 vssd1 vccd1 vccd1 _172_/CLK sky130_fd_sc_hd__clkbuf_2
XFILLER_8_62 vssd1 vssd1 vccd1 vccd1 sky130_fd_sc_hd__decap_12
XFILLER_17_93 vssd1 vssd1 vccd1 vccd1 sky130_fd_sc_hd__decap_4
XFILLER_1_108 vssd1 vssd1 vccd1 vccd1 sky130_fd_sc_hd__decap_4
XFILLER_12_3 vssd1 vssd1 vccd1 vccd1 sky130_fd_sc_hd__fill_2
XTAP_76 vssd1 vccd1 sky130_fd_sc_hd__tapvpwrvgnd_1
XTAP_43 vssd1 vccd1 sky130_fd_sc_hd__tapvpwrvgnd_1
Xinput9 counter_start[6] vssd1 vssd1 vccd1 vccd1 _153_/B sky130_fd_sc_hd__clkbuf_1
XTAP_54 vssd1 vccd1 sky130_fd_sc_hd__tapvpwrvgnd_1
XTAP_65 vssd1 vccd1 sky130_fd_sc_hd__tapvpwrvgnd_1
XFILLER_14_83 vssd1 vssd1 vccd1 vccd1 sky130_fd_sc_hd__fill_1
Xbuffers\[11\]._0_ buffers\[11\]._0_/A vssd1 vssd1 vccd1 vccd1 buffers\[12\]._0_/A
+ sky130_fd_sc_hd__inv_2
XFILLER_2_53 vssd1 vssd1 vccd1 vccd1 sky130_fd_sc_hd__fill_1
X_120_ ring_osc_counter_out[7] _120_/B vssd1 vssd1 vccd1 vccd1 _164_/D sky130_fd_sc_hd__xor2_1
Xinput12 reset vssd1 vssd1 vccd1 vccd1 _129_/A sky130_fd_sc_hd__dlymetal6s2s_1
XFILLER_16_29 vssd1 vssd1 vccd1 vccd1 sky130_fd_sc_hd__decap_4
X_103_ _103_/A _103_/B vssd1 vssd1 vccd1 vccd1 _103_/Y sky130_fd_sc_hd__xnor2_1
XFILLER_14_7 vssd1 vssd1 vccd1 vccd1 sky130_fd_sc_hd__fill_1
XFILLER_8_74 vssd1 vssd1 vccd1 vccd1 sky130_fd_sc_hd__decap_8
XFILLER_8_85 vssd1 vssd1 vccd1 vccd1 sky130_fd_sc_hd__decap_4
XFILLER_14_73 vssd1 vssd1 vccd1 vccd1 sky130_fd_sc_hd__fill_1
XFILLER_19_29 vssd1 vssd1 vccd1 vccd1 sky130_fd_sc_hd__decap_12
XTAP_77 vssd1 vccd1 sky130_fd_sc_hd__tapvpwrvgnd_1
XTAP_44 vssd1 vccd1 sky130_fd_sc_hd__tapvpwrvgnd_1
XTAP_55 vssd1 vccd1 sky130_fd_sc_hd__tapvpwrvgnd_1
XTAP_66 vssd1 vccd1 sky130_fd_sc_hd__tapvpwrvgnd_1
XFILLER_4_6 vssd1 vssd1 vccd1 vccd1 sky130_fd_sc_hd__decap_8
Xinput13 run vssd1 vssd1 vccd1 vccd1 _096_/A sky130_fd_sc_hd__dlymetal6s2s_1
XFILLER_2_3 vssd1 vssd1 vccd1 vccd1 sky130_fd_sc_hd__decap_6
Xbuffers\[10\]._0_ buffers\[9\]._0_/Y vssd1 vssd1 vccd1 vccd1 buffers\[11\]._0_/A
+ sky130_fd_sc_hd__inv_2
XFILLER_11_52 vssd1 vssd1 vccd1 vccd1 sky130_fd_sc_hd__decap_4
X_102_ input1/X _100_/Y _101_/Y _094_/A _129_/A vssd1 vssd1 vccd1 vccd1 _103_/B sky130_fd_sc_hd__a221o_1
XFILLER_7_104 vssd1 vssd1 vccd1 vccd1 sky130_fd_sc_hd__decap_8
XFILLER_11_100 vssd1 vssd1 vccd1 vccd1 sky130_fd_sc_hd__decap_4
XFILLER_8_42 vssd1 vssd1 vccd1 vccd1 sky130_fd_sc_hd__decap_12
XFILLER_14_85 vssd1 vssd1 vccd1 vccd1 sky130_fd_sc_hd__decap_4
XTAP_78 vssd1 vccd1 sky130_fd_sc_hd__tapvpwrvgnd_1
XTAP_45 vssd1 vccd1 sky130_fd_sc_hd__tapvpwrvgnd_1
XTAP_56 vssd1 vccd1 sky130_fd_sc_hd__tapvpwrvgnd_1
XTAP_67 vssd1 vccd1 sky130_fd_sc_hd__tapvpwrvgnd_1
XFILLER_2_99 vssd1 vssd1 vccd1 vccd1 sky130_fd_sc_hd__decap_12
XFILLER_11_20 vssd1 vssd1 vccd1 vccd1 sky130_fd_sc_hd__decap_4
XFILLER_11_31 vssd1 vssd1 vccd1 vccd1 sky130_fd_sc_hd__decap_4
X_101_ input1/X input2/X _096_/A vssd1 vssd1 vccd1 vccd1 _101_/Y sky130_fd_sc_hd__a21boi_1
XFILLER_8_54 vssd1 vssd1 vccd1 vccd1 sky130_fd_sc_hd__fill_1
XFILLER_17_52 vssd1 vssd1 vccd1 vccd1 sky130_fd_sc_hd__decap_4
XFILLER_5_33 vssd1 vssd1 vccd1 vccd1 sky130_fd_sc_hd__decap_4
XFILLER_10_3 vssd1 vssd1 vccd1 vccd1 sky130_fd_sc_hd__decap_12
XFILLER_14_53 vssd1 vssd1 vccd1 vccd1 sky130_fd_sc_hd__fill_1
XTAP_79 vssd1 vccd1 sky130_fd_sc_hd__tapvpwrvgnd_1
XTAP_46 vssd1 vccd1 sky130_fd_sc_hd__tapvpwrvgnd_1
XTAP_57 vssd1 vccd1 sky130_fd_sc_hd__tapvpwrvgnd_1
XTAP_68 vssd1 vccd1 sky130_fd_sc_hd__tapvpwrvgnd_1
XFILLER_2_34 vssd1 vssd1 vccd1 vccd1 sky130_fd_sc_hd__decap_8
XPHY_30 vssd1 vssd1 vccd1 vccd1 sky130_fd_sc_hd__decap_3
XFILLER_11_65 vssd1 vssd1 vccd1 vccd1 sky130_fd_sc_hd__fill_1
X_100_ _094_/A _096_/A input2/X vssd1 vssd1 vccd1 vccd1 _100_/Y sky130_fd_sc_hd__a21boi_1
XFILLER_11_113 vssd1 vssd1 vccd1 vccd1 sky130_fd_sc_hd__decap_3
XFILLER_17_97 vssd1 vssd1 vccd1 vccd1 sky130_fd_sc_hd__fill_1
XFILLER_17_31 vssd1 vssd1 vccd1 vccd1 sky130_fd_sc_hd__decap_4
XFILLER_5_89 vssd1 vssd1 vccd1 vccd1 sky130_fd_sc_hd__fill_1
XFILLER_14_65 vssd1 vssd1 vccd1 vccd1 sky130_fd_sc_hd__decap_8
XTAP_47 vssd1 vccd1 sky130_fd_sc_hd__tapvpwrvgnd_1
XTAP_58 vssd1 vccd1 sky130_fd_sc_hd__tapvpwrvgnd_1
XTAP_69 vssd1 vccd1 sky130_fd_sc_hd__tapvpwrvgnd_1
XPHY_31 vssd1 vssd1 vccd1 vccd1 sky130_fd_sc_hd__decap_3
XPHY_20 vssd1 vssd1 vccd1 vccd1 sky130_fd_sc_hd__decap_3
XFILLER_11_11 vssd1 vssd1 vccd1 vccd1 sky130_fd_sc_hd__fill_2
XFILLER_8_34 vssd1 vssd1 vccd1 vccd1 sky130_fd_sc_hd__decap_4
X_159_ _123_/Y _159_/D _085_/Y vssd1 vssd1 vccd1 vccd1 ring_osc_counter_out[2] sky130_fd_sc_hd__dfrtp_4
XFILLER_17_21 vssd1 vssd1 vccd1 vccd1 sky130_fd_sc_hd__decap_4
XFILLER_0_113 vssd1 vssd1 vccd1 vccd1 sky130_fd_sc_hd__decap_3
XFILLER_5_24 vssd1 vssd1 vccd1 vccd1 sky130_fd_sc_hd__fill_2
XFILLER_5_57 vssd1 vssd1 vccd1 vccd1 sky130_fd_sc_hd__decap_12