* NGSPICE file created from instrumented_adder.ext - technology: sky130A

* Black-box entry subcircuit for sky130_fd_sc_hd__inv_2 abstract view
.subckt sky130_fd_sc_hd__inv_2 A VGND VNB VPB VPWR Y
.ends

* Black-box entry subcircuit for sky130_fd_sc_hd__decap_8 abstract view
.subckt sky130_fd_sc_hd__decap_8 VGND VNB VPB VPWR
.ends

* Black-box entry subcircuit for sky130_fd_sc_hd__decap_4 abstract view
.subckt sky130_fd_sc_hd__decap_4 VGND VNB VPB VPWR
.ends

* Black-box entry subcircuit for sky130_fd_sc_hd__dlymetal6s2s_1 abstract view
.subckt sky130_fd_sc_hd__dlymetal6s2s_1 A VGND VNB VPB VPWR X
.ends

* Black-box entry subcircuit for sky130_fd_sc_hd__nor2_1 abstract view
.subckt sky130_fd_sc_hd__nor2_1 A B VGND VNB VPB VPWR Y
.ends

* Black-box entry subcircuit for sky130_fd_sc_hd__fill_1 abstract view
.subckt sky130_fd_sc_hd__fill_1 VGND VNB VPB VPWR
.ends

* Black-box entry subcircuit for sky130_fd_sc_hd__tapvpwrvgnd_1 abstract view
.subckt sky130_fd_sc_hd__tapvpwrvgnd_1 VGND VPWR
.ends

* Black-box entry subcircuit for sky130_fd_sc_hd__decap_6 abstract view
.subckt sky130_fd_sc_hd__decap_6 VGND VNB VPB VPWR
.ends

* Black-box entry subcircuit for sky130_fd_sc_hd__xnor2_1 abstract view
.subckt sky130_fd_sc_hd__xnor2_1 A B VGND VNB VPB VPWR Y
.ends

* Black-box entry subcircuit for sky130_fd_sc_hd__decap_12 abstract view
.subckt sky130_fd_sc_hd__decap_12 VGND VNB VPB VPWR
.ends

* Black-box entry subcircuit for sky130_fd_sc_hd__decap_3 abstract view
.subckt sky130_fd_sc_hd__decap_3 VGND VNB VPB VPWR
.ends

* Black-box entry subcircuit for sky130_fd_sc_hd__fill_2 abstract view
.subckt sky130_fd_sc_hd__fill_2 VGND VNB VPB VPWR
.ends

* Black-box entry subcircuit for sky130_fd_sc_hd__and3_1 abstract view
.subckt sky130_fd_sc_hd__and3_1 A B C VGND VNB VPB VPWR X
.ends

* Black-box entry subcircuit for sky130_fd_sc_hd__clkbuf_1 abstract view
.subckt sky130_fd_sc_hd__clkbuf_1 A VGND VNB VPB VPWR X
.ends

* Black-box entry subcircuit for sky130_fd_sc_hd__xor2_1 abstract view
.subckt sky130_fd_sc_hd__xor2_1 A B VGND VNB VPB VPWR X
.ends

* Black-box entry subcircuit for sky130_fd_sc_hd__and2_1 abstract view
.subckt sky130_fd_sc_hd__and2_1 A B VGND VNB VPB VPWR X
.ends

* Black-box entry subcircuit for sky130_fd_sc_hd__dfrtp_4 abstract view
.subckt sky130_fd_sc_hd__dfrtp_4 CLK D RESET_B VGND VNB VPB VPWR Q
.ends

* Black-box entry subcircuit for sky130_fd_sc_hd__or2_1 abstract view
.subckt sky130_fd_sc_hd__or2_1 A B VGND VNB VPB VPWR X
.ends

* Black-box entry subcircuit for sky130_fd_sc_hd__nand2_1 abstract view
.subckt sky130_fd_sc_hd__nand2_1 A B VGND VNB VPB VPWR Y
.ends

* Black-box entry subcircuit for sky130_fd_sc_hd__o31ai_1 abstract view
.subckt sky130_fd_sc_hd__o31ai_1 A1 A2 A3 B1 VGND VNB VPB VPWR Y
.ends

* Black-box entry subcircuit for sky130_fd_sc_hd__a31o_1 abstract view
.subckt sky130_fd_sc_hd__a31o_1 A1 A2 A3 B1 VGND VNB VPB VPWR X
.ends

* Black-box entry subcircuit for sky130_fd_sc_hd__a21o_1 abstract view
.subckt sky130_fd_sc_hd__a21o_1 A1 A2 B1 VGND VNB VPB VPWR X
.ends

* Black-box entry subcircuit for sky130_fd_sc_hd__and4_1 abstract view
.subckt sky130_fd_sc_hd__and4_1 A B C D VGND VNB VPB VPWR X
.ends

* Black-box entry subcircuit for sky130_fd_sc_hd__clkbuf_16 abstract view
.subckt sky130_fd_sc_hd__clkbuf_16 A VGND VNB VPB VPWR X
.ends

* Black-box entry subcircuit for sky130_fd_sc_hd__o2111a_2 abstract view
.subckt sky130_fd_sc_hd__o2111a_2 A1 A2 B1 C1 D1 VGND VNB VPB VPWR X
.ends

* Black-box entry subcircuit for sky130_fd_sc_hd__o21ai_1 abstract view
.subckt sky130_fd_sc_hd__o21ai_1 A1 A2 B1 VGND VNB VPB VPWR Y
.ends

* Black-box entry subcircuit for sky130_fd_sc_hd__or4_1 abstract view
.subckt sky130_fd_sc_hd__or4_1 A B C D VGND VNB VPB VPWR X
.ends

* Black-box entry subcircuit for sky130_fd_sc_hd__or3_1 abstract view
.subckt sky130_fd_sc_hd__or3_1 A B C VGND VNB VPB VPWR X
.ends

* Black-box entry subcircuit for sky130_fd_sc_hd__or4b_1 abstract view
.subckt sky130_fd_sc_hd__or4b_1 A B C D_N VGND VNB VPB VPWR X
.ends

* Black-box entry subcircuit for sky130_fd_sc_hd__a32o_1 abstract view
.subckt sky130_fd_sc_hd__a32o_1 A1 A2 A3 B1 B2 VGND VNB VPB VPWR X
.ends

* Black-box entry subcircuit for sky130_fd_sc_hd__mux2_1 abstract view
.subckt sky130_fd_sc_hd__mux2_1 A0 A1 S VGND VNB VPB VPWR X
.ends

* Black-box entry subcircuit for sky130_fd_sc_hd__clkbuf_2 abstract view
.subckt sky130_fd_sc_hd__clkbuf_2 A VGND VNB VPB VPWR X
.ends

* Black-box entry subcircuit for sky130_fd_sc_hd__nand2_4 abstract view
.subckt sky130_fd_sc_hd__nand2_4 A B VGND VNB VPB VPWR Y
.ends

* Black-box entry subcircuit for sky130_fd_sc_hd__buf_2 abstract view
.subckt sky130_fd_sc_hd__buf_2 A VGND VNB VPB VPWR X
.ends

* Black-box entry subcircuit for sky130_fd_sc_hd__o21ba_2 abstract view
.subckt sky130_fd_sc_hd__o21ba_2 A1 A2 B1_N VGND VNB VPB VPWR X
.ends

* Black-box entry subcircuit for sky130_fd_sc_hd__clkinv_2 abstract view
.subckt sky130_fd_sc_hd__clkinv_2 A VGND VNB VPB VPWR Y
.ends

* Black-box entry subcircuit for sky130_fd_sc_hd__a21oi_1 abstract view
.subckt sky130_fd_sc_hd__a21oi_1 A1 A2 B1 VGND VNB VPB VPWR Y
.ends

* Black-box entry subcircuit for sky130_fd_sc_hd__a2bb2o_1 abstract view
.subckt sky130_fd_sc_hd__a2bb2o_1 A1_N A2_N B1 B2 VGND VNB VPB VPWR X
.ends

* Black-box entry subcircuit for sky130_fd_sc_hd__o21a_1 abstract view
.subckt sky130_fd_sc_hd__o21a_1 A1 A2 B1 VGND VNB VPB VPWR X
.ends

* Black-box entry subcircuit for sky130_fd_sc_hd__nor4_1 abstract view
.subckt sky130_fd_sc_hd__nor4_1 A B C D VGND VNB VPB VPWR Y
.ends

* Black-box entry subcircuit for sky130_fd_sc_hd__o211ai_1 abstract view
.subckt sky130_fd_sc_hd__o211ai_1 A1 A2 B1 C1 VGND VNB VPB VPWR Y
.ends

* Black-box entry subcircuit for sky130_fd_sc_hd__a211o_1 abstract view
.subckt sky130_fd_sc_hd__a211o_1 A1 A2 B1 C1 VGND VNB VPB VPWR X
.ends

* Black-box entry subcircuit for sky130_fd_sc_hd__a31o_2 abstract view
.subckt sky130_fd_sc_hd__a31o_2 A1 A2 A3 B1 VGND VNB VPB VPWR X
.ends

* Black-box entry subcircuit for sky130_fd_sc_hd__o22ai_1 abstract view
.subckt sky130_fd_sc_hd__o22ai_1 A1 A2 B1 B2 VGND VNB VPB VPWR Y
.ends

* Black-box entry subcircuit for sky130_fd_sc_hd__a221o_1 abstract view
.subckt sky130_fd_sc_hd__a221o_1 A1 A2 B1 B2 C1 VGND VNB VPB VPWR X
.ends

.subckt instrumented_adder a_input[0] a_input[1] a_input[2] a_input[3] a_input[4]
+ a_input[5] a_input[6] a_input[7] b[0] b[1] b[2] b[3] b[4] b[5] b[6] b[7] bypass
+ chain clk counter_end[0] counter_end[1] counter_end[2] counter_end[3] counter_end[4]
+ counter_end[5] counter_end[6] counter_end[7] counter_out[0] counter_out[1] counter_out[2]
+ counter_out[3] counter_out[4] counter_out[5] counter_out[6] counter_out[7] extra_inverter
+ reset ring_osc_counter_out[0] ring_osc_counter_out[1] ring_osc_counter_out[2] ring_osc_counter_out[3]
+ ring_osc_counter_out[4] ring_osc_counter_out[5] ring_osc_counter_out[6] ring_osc_counter_out[7]
+ run sum_out[0] sum_out[1] sum_out[2] sum_out[3] sum_out[4] sum_out[5] sum_out[6]
+ sum_out[7] time_count_overflow vccd1 vssd1
X_294_ _294_/A vssd1 vssd1 vccd1 vccd1 _294_/Y sky130_fd_sc_hd__inv_2
XFILLER_3_34 vssd1 vssd1 vccd1 vccd1 sky130_fd_sc_hd__decap_8
XFILLER_3_67 vssd1 vssd1 vccd1 vccd1 sky130_fd_sc_hd__decap_4
Xbuffers\[6\]._0_ buffers\[6\]._0_/A vssd1 vssd1 vccd1 vccd1 buffers\[7\]._0_/A sky130_fd_sc_hd__inv_2
X_277_ _285_/B vssd1 vssd1 vccd1 vccd1 _282_/B sky130_fd_sc_hd__dlymetal6s2s_1
X_200_ _200_/A _200_/B vssd1 vssd1 vccd1 vccd1 _303_/D sky130_fd_sc_hd__nor2_1
XFILLER_20_10 vssd1 vssd1 vccd1 vccd1 sky130_fd_sc_hd__fill_1
XFILLER_13_3 vssd1 vssd1 vccd1 vccd1 sky130_fd_sc_hd__decap_8
XFILLER_6_23 vssd1 vssd1 vccd1 vccd1 sky130_fd_sc_hd__decap_4
XFILLER_6_45 vssd1 vssd1 vccd1 vccd1 sky130_fd_sc_hd__decap_8
XFILLER_6_67 vssd1 vssd1 vccd1 vccd1 sky130_fd_sc_hd__fill_1
XFILLER_15_98 vssd1 vssd1 vccd1 vccd1 sky130_fd_sc_hd__decap_4
XFILLER_15_87 vssd1 vssd1 vccd1 vccd1 sky130_fd_sc_hd__fill_1
XFILLER_15_21 vssd1 vssd1 vccd1 vccd1 sky130_fd_sc_hd__decap_4
XTAP_112 vssd1 vccd1 sky130_fd_sc_hd__tapvpwrvgnd_1
XTAP_101 vssd1 vccd1 sky130_fd_sc_hd__tapvpwrvgnd_1
X_293_ _294_/A vssd1 vssd1 vccd1 vccd1 _293_/Y sky130_fd_sc_hd__inv_2
XFILLER_13_145 vssd1 vssd1 vccd1 vccd1 sky130_fd_sc_hd__decap_4
XFILLER_3_13 vssd1 vssd1 vccd1 vccd1 sky130_fd_sc_hd__decap_4
XFILLER_9_105 vssd1 vssd1 vccd1 vccd1 sky130_fd_sc_hd__decap_6
XFILLER_9_149 vssd1 vssd1 vccd1 vccd1 sky130_fd_sc_hd__fill_1
X_276_ _285_/A vssd1 vssd1 vccd1 vccd1 _282_/A sky130_fd_sc_hd__dlymetal6s2s_1
XFILLER_23_76 vssd1 vssd1 vccd1 vccd1 sky130_fd_sc_hd__decap_8
XFILLER_2_100 vssd1 vssd1 vccd1 vccd1 sky130_fd_sc_hd__decap_4
X_259_ _259_/A _259_/B vssd1 vssd1 vccd1 vccd1 _317_/A sky130_fd_sc_hd__xnor2_1
Xbuffers\[5\]._0_ buffers\[5\]._0_/A vssd1 vssd1 vccd1 vccd1 buffers\[6\]._0_/A sky130_fd_sc_hd__inv_2
XFILLER_18_32 vssd1 vssd1 vccd1 vccd1 sky130_fd_sc_hd__decap_12
XFILLER_18_21 vssd1 vssd1 vccd1 vccd1 sky130_fd_sc_hd__decap_6
XFILLER_6_79 vssd1 vssd1 vccd1 vccd1 sky130_fd_sc_hd__decap_4
XFILLER_25_132 vssd1 vssd1 vccd1 vccd1 sky130_fd_sc_hd__decap_8
XFILLER_25_121 vssd1 vssd1 vccd1 vccd1 sky130_fd_sc_hd__fill_1
XFILLER_15_11 vssd1 vssd1 vccd1 vccd1 sky130_fd_sc_hd__decap_3
XTAP_113 vssd1 vccd1 sky130_fd_sc_hd__tapvpwrvgnd_1
XTAP_102 vssd1 vccd1 sky130_fd_sc_hd__tapvpwrvgnd_1
X_292_ _294_/A vssd1 vssd1 vccd1 vccd1 _292_/Y sky130_fd_sc_hd__inv_2
XFILLER_6_109 vssd1 vssd1 vccd1 vccd1 sky130_fd_sc_hd__fill_1
XFILLER_10_127 vssd1 vssd1 vccd1 vccd1 sky130_fd_sc_hd__decap_4
X_275_ ring_osc_counter_out[7] _275_/B vssd1 vssd1 vccd1 vccd1 _302_/D sky130_fd_sc_hd__xnor2_1
XFILLER_23_44 vssd1 vssd1 vccd1 vccd1 sky130_fd_sc_hd__fill_2
XFILLER_23_11 vssd1 vssd1 vccd1 vccd1 sky130_fd_sc_hd__fill_1
XFILLER_0_15 vssd1 vssd1 vccd1 vccd1 sky130_fd_sc_hd__fill_1
X_189_ counter_out[3] _193_/A _198_/A vssd1 vssd1 vccd1 vccd1 _192_/A sky130_fd_sc_hd__and3_1
X_258_ _258_/A _258_/B vssd1 vssd1 vccd1 vccd1 _259_/B sky130_fd_sc_hd__nor2_1
XFILLER_9_57 vssd1 vssd1 vccd1 vccd1 sky130_fd_sc_hd__fill_2
XFILLER_18_77 vssd1 vssd1 vccd1 vccd1 sky130_fd_sc_hd__decap_6
XFILLER_18_44 vssd1 vssd1 vccd1 vccd1 sky130_fd_sc_hd__decap_12
XFILLER_20_6 vssd1 vssd1 vccd1 vccd1 sky130_fd_sc_hd__decap_4
Xbuffers\[4\]._0_ buffers\[4\]._0_/A vssd1 vssd1 vccd1 vccd1 buffers\[5\]._0_/A sky130_fd_sc_hd__inv_2
XTAP_114 vssd1 vccd1 sky130_fd_sc_hd__tapvpwrvgnd_1
XTAP_103 vssd1 vccd1 sky130_fd_sc_hd__tapvpwrvgnd_1
X_291_ _294_/A vssd1 vssd1 vccd1 vccd1 _291_/Y sky130_fd_sc_hd__inv_2
XFILLER_13_136 vssd1 vssd1 vccd1 vccd1 sky130_fd_sc_hd__decap_4
XFILLER_5_7 vssd1 vssd1 vccd1 vccd1 sky130_fd_sc_hd__decap_4
XFILLER_10_117 vssd1 vssd1 vccd1 vccd1 sky130_fd_sc_hd__decap_4
X_274_ _274_/A vssd1 vssd1 vccd1 vccd1 _301_/D sky130_fd_sc_hd__clkbuf_1
XFILLER_0_27 vssd1 vssd1 vccd1 vccd1 sky130_fd_sc_hd__fill_1
XFILLER_2_135 vssd1 vssd1 vccd1 vccd1 sky130_fd_sc_hd__decap_4
XFILLER_2_146 vssd1 vssd1 vccd1 vccd1 sky130_fd_sc_hd__decap_4
X_188_ _188_/A _188_/B vssd1 vssd1 vccd1 vccd1 _308_/D sky130_fd_sc_hd__xor2_1
X_257_ _257_/A _257_/B vssd1 vssd1 vccd1 vccd1 _258_/A sky130_fd_sc_hd__and2_1
XFILLER_18_56 vssd1 vssd1 vccd1 vccd1 sky130_fd_sc_hd__decap_8
X_309_ _309_/CLK _309_/D _293_/Y vssd1 vssd1 vccd1 vccd1 counter_out[6] sky130_fd_sc_hd__dfrtp_4
XFILLER_6_59 vssd1 vssd1 vccd1 vccd1 sky130_fd_sc_hd__decap_8
XFILLER_19_131 vssd1 vssd1 vccd1 vccd1 sky130_fd_sc_hd__decap_12
XFILLER_19_120 vssd1 vssd1 vccd1 vccd1 sky130_fd_sc_hd__decap_4
XTAP_115 vssd1 vccd1 sky130_fd_sc_hd__tapvpwrvgnd_1
XTAP_104 vssd1 vccd1 sky130_fd_sc_hd__tapvpwrvgnd_1
XFILLER_11_3 vssd1 vssd1 vccd1 vccd1 sky130_fd_sc_hd__decap_12
XFILLER_22_137 vssd1 vssd1 vccd1 vccd1 sky130_fd_sc_hd__decap_3
Xbuffers\[3\]._0_ buffers\[3\]._0_/A vssd1 vssd1 vccd1 vccd1 buffers\[4\]._0_/A sky130_fd_sc_hd__inv_2
X_290_ _294_/A vssd1 vssd1 vccd1 vccd1 _290_/Y sky130_fd_sc_hd__inv_2
XFILLER_3_49 vssd1 vssd1 vccd1 vccd1 sky130_fd_sc_hd__decap_6
XFILLER_9_119 vssd1 vssd1 vccd1 vccd1 sky130_fd_sc_hd__decap_12
XFILLER_8_141 vssd1 vssd1 vccd1 vccd1 sky130_fd_sc_hd__decap_8
X_273_ _275_/B _273_/B vssd1 vssd1 vccd1 vccd1 _274_/A sky130_fd_sc_hd__and2_1
XFILLER_23_68 vssd1 vssd1 vccd1 vccd1 sky130_fd_sc_hd__fill_1
XFILLER_23_24 vssd1 vssd1 vccd1 vccd1 sky130_fd_sc_hd__decap_4
X_187_ counter_out[6] _187_/B vssd1 vssd1 vccd1 vccd1 _309_/D sky130_fd_sc_hd__xnor2_1
X_256_ _256_/A _256_/B vssd1 vssd1 vccd1 vccd1 _316_/A sky130_fd_sc_hd__xnor2_1
XFILLER_0_39 vssd1 vssd1 vccd1 vccd1 sky130_fd_sc_hd__decap_12
XFILLER_18_13 vssd1 vssd1 vccd1 vccd1 sky130_fd_sc_hd__decap_4
X_308_ _310_/CLK _308_/D _292_/Y vssd1 vssd1 vccd1 vccd1 counter_out[5] sky130_fd_sc_hd__dfrtp_4
XFILLER_1_93 vssd1 vssd1 vccd1 vccd1 sky130_fd_sc_hd__decap_12
X_239_ _239_/A _239_/B vssd1 vssd1 vccd1 vccd1 _240_/B sky130_fd_sc_hd__or2_1
XFILLER_6_16 vssd1 vssd1 vccd1 vccd1 sky130_fd_sc_hd__decap_4
XFILLER_19_143 vssd1 vssd1 vccd1 vccd1 sky130_fd_sc_hd__decap_6
XFILLER_6_27 vssd1 vssd1 vccd1 vccd1 sky130_fd_sc_hd__fill_1
XFILLER_6_38 vssd1 vssd1 vccd1 vccd1 sky130_fd_sc_hd__decap_4
XFILLER_10_80 vssd1 vssd1 vccd1 vccd1 sky130_fd_sc_hd__decap_4
XFILLER_25_146 vssd1 vssd1 vccd1 vccd1 sky130_fd_sc_hd__decap_4
XFILLER_25_113 vssd1 vssd1 vccd1 vccd1 sky130_fd_sc_hd__decap_8
XFILLER_15_36 vssd1 vssd1 vccd1 vccd1 sky130_fd_sc_hd__fill_1
XTAP_116 vssd1 vccd1 sky130_fd_sc_hd__tapvpwrvgnd_1
XTAP_105 vssd1 vccd1 sky130_fd_sc_hd__tapvpwrvgnd_1
XFILLER_16_146 vssd1 vssd1 vccd1 vccd1 sky130_fd_sc_hd__decap_4
XFILLER_22_149 vssd1 vssd1 vccd1 vccd1 sky130_fd_sc_hd__fill_1
XFILLER_13_149 vssd1 vssd1 vccd1 vccd1 sky130_fd_sc_hd__fill_1
XFILLER_3_28 vssd1 vssd1 vccd1 vccd1 sky130_fd_sc_hd__fill_2
X_272_ ring_osc_counter_out[6] _272_/B vssd1 vssd1 vccd1 vccd1 _273_/B sky130_fd_sc_hd__or2_1
XFILLER_10_108 vssd1 vssd1 vccd1 vccd1 sky130_fd_sc_hd__decap_4
XFILLER_12_26 vssd1 vssd1 vccd1 vccd1 sky130_fd_sc_hd__fill_2
XFILLER_23_36 vssd1 vssd1 vccd1 vccd1 sky130_fd_sc_hd__decap_8
Xbuffers\[2\]._0_ buffers\[2\]._0_/A vssd1 vssd1 vccd1 vccd1 buffers\[3\]._0_/A sky130_fd_sc_hd__inv_2
X_186_ _188_/A _188_/B vssd1 vssd1 vccd1 vccd1 _187_/B sky130_fd_sc_hd__nand2_1
X_255_ _255_/A _255_/B vssd1 vssd1 vccd1 vccd1 _256_/B sky130_fd_sc_hd__nand2_1
XFILLER_3_6 vssd1 vssd1 vccd1 vccd1 sky130_fd_sc_hd__decap_4
XFILLER_1_3 vssd1 vssd1 vccd1 vccd1 sky130_fd_sc_hd__decap_4
X_307_ _310_/CLK _307_/D _291_/Y vssd1 vssd1 vccd1 vccd1 counter_out[4] sky130_fd_sc_hd__dfrtp_4
X_169_ _165_/A _165_/B _165_/C _144_/D vssd1 vssd1 vccd1 vccd1 _173_/C sky130_fd_sc_hd__o31ai_1
XFILLER_1_83 vssd1 vssd1 vccd1 vccd1 sky130_fd_sc_hd__decap_6
X_238_ _238_/A vssd1 vssd1 vccd1 vccd1 _311_/A sky130_fd_sc_hd__clkbuf_1
XFILLER_20_26 vssd1 vssd1 vccd1 vccd1 sky130_fd_sc_hd__fill_2
XFILLER_19_111 vssd1 vssd1 vccd1 vccd1 sky130_fd_sc_hd__fill_1
XTAP_117 vssd1 vccd1 sky130_fd_sc_hd__tapvpwrvgnd_1
XFILLER_22_117 vssd1 vssd1 vccd1 vccd1 sky130_fd_sc_hd__decap_12
XTAP_106 vssd1 vccd1 sky130_fd_sc_hd__tapvpwrvgnd_1
XPHY_0 vssd1 vssd1 vccd1 vccd1 sky130_fd_sc_hd__decap_3
XFILLER_7_71 vssd1 vssd1 vccd1 vccd1 sky130_fd_sc_hd__decap_12
XFILLER_12_38 vssd1 vssd1 vccd1 vccd1 sky130_fd_sc_hd__decap_12
X_271_ ring_osc_counter_out[6] _272_/B vssd1 vssd1 vccd1 vccd1 _275_/B sky130_fd_sc_hd__nand2_1
XFILLER_5_146 vssd1 vssd1 vccd1 vccd1 sky130_fd_sc_hd__decap_4
XFILLER_4_61 vssd1 vssd1 vccd1 vccd1 sky130_fd_sc_hd__decap_4
XFILLER_4_83 vssd1 vssd1 vccd1 vccd1 sky130_fd_sc_hd__fill_1
X_185_ counter_out[6] _188_/A _188_/B counter_out[7] vssd1 vssd1 vccd1 vccd1 _310_/D
+ sky130_fd_sc_hd__a31o_1
X_254_ _254_/A _254_/B vssd1 vssd1 vccd1 vccd1 _255_/B sky130_fd_sc_hd__or2_1
XFILLER_0_19 vssd1 vssd1 vccd1 vccd1 sky130_fd_sc_hd__decap_8
XFILLER_9_28 vssd1 vssd1 vccd1 vccd1 sky130_fd_sc_hd__decap_12
X_306_ _310_/CLK _306_/D _290_/Y vssd1 vssd1 vccd1 vccd1 counter_out[3] sky130_fd_sc_hd__dfrtp_4
X_168_ _163_/X _181_/A _180_/B vssd1 vssd1 vccd1 vccd1 _168_/X sky130_fd_sc_hd__a21o_1
Xbuffers\[1\]._0_ buffers\[1\]._0_/A vssd1 vssd1 vccd1 vccd1 buffers\[2\]._0_/A sky130_fd_sc_hd__inv_2
X_237_ _241_/A _237_/B vssd1 vssd1 vccd1 vccd1 _238_/A sky130_fd_sc_hd__and2_1
XFILLER_19_91 vssd1 vssd1 vccd1 vccd1 sky130_fd_sc_hd__decap_12
XFILLER_25_104 vssd1 vssd1 vccd1 vccd1 sky130_fd_sc_hd__decap_8
XTAP_118 vssd1 vccd1 sky130_fd_sc_hd__tapvpwrvgnd_1
XFILLER_22_129 vssd1 vssd1 vccd1 vccd1 sky130_fd_sc_hd__decap_8
XTAP_107 vssd1 vccd1 sky130_fd_sc_hd__tapvpwrvgnd_1
XPHY_1 vssd1 vssd1 vccd1 vccd1 sky130_fd_sc_hd__decap_3
XFILLER_7_83 vssd1 vssd1 vccd1 vccd1 sky130_fd_sc_hd__decap_12
X_270_ _272_/B _270_/B vssd1 vssd1 vccd1 vccd1 _300_/D sky130_fd_sc_hd__nor2_1
XFILLER_23_16 vssd1 vssd1 vccd1 vccd1 sky130_fd_sc_hd__decap_4
XFILLER_2_139 vssd1 vssd1 vccd1 vccd1 sky130_fd_sc_hd__fill_1
X_184_ counter_out[4] counter_out[3] _193_/A _198_/A vssd1 vssd1 vccd1 vccd1 _188_/B
+ sky130_fd_sc_hd__and4_1
X_253_ _253_/A _253_/B vssd1 vssd1 vccd1 vccd1 _256_/A sky130_fd_sc_hd__nand2_1
XFILLER_18_27 vssd1 vssd1 vccd1 vccd1 sky130_fd_sc_hd__fill_1
X_167_ counter_out[2] _167_/B _167_/C vssd1 vssd1 vccd1 vccd1 _180_/B sky130_fd_sc_hd__and3_1
X_305_ _309_/CLK _305_/D _288_/Y vssd1 vssd1 vccd1 vccd1 counter_out[2] sky130_fd_sc_hd__dfrtp_4
X_236_ _236_/A _236_/B vssd1 vssd1 vccd1 vccd1 _237_/B sky130_fd_sc_hd__or2_1
XFILLER_19_113 vssd1 vssd1 vccd1 vccd1 sky130_fd_sc_hd__fill_2
X_219_ _222_/A _222_/B vssd1 vssd1 vccd1 vccd1 _243_/A sky130_fd_sc_hd__nand2_1
XFILLER_16_116 vssd1 vssd1 vccd1 vccd1 sky130_fd_sc_hd__decap_12
XFILLER_15_28 vssd1 vssd1 vccd1 vccd1 sky130_fd_sc_hd__decap_8
Xbuffers\[0\]._0_ _234_/Y vssd1 vssd1 vccd1 vccd1 buffers\[1\]._0_/A sky130_fd_sc_hd__inv_2
XTAP_119 vssd1 vccd1 sky130_fd_sc_hd__tapvpwrvgnd_1
XTAP_108 vssd1 vccd1 sky130_fd_sc_hd__tapvpwrvgnd_1
XFILLER_21_93 vssd1 vssd1 vccd1 vccd1 sky130_fd_sc_hd__decap_4
Xclkbuf_0_clk clk vssd1 vssd1 vccd1 vccd1 clkbuf_0_clk/X sky130_fd_sc_hd__clkbuf_16
XPHY_2 vssd1 vssd1 vccd1 vccd1 sky130_fd_sc_hd__decap_3
XFILLER_7_40 vssd1 vssd1 vccd1 vccd1 sky130_fd_sc_hd__fill_1
XFILLER_7_95 vssd1 vssd1 vccd1 vccd1 sky130_fd_sc_hd__decap_12
XFILLER_16_93 vssd1 vssd1 vccd1 vccd1 sky130_fd_sc_hd__decap_6
XFILLER_16_82 vssd1 vssd1 vccd1 vccd1 sky130_fd_sc_hd__fill_2
XFILLER_16_60 vssd1 vssd1 vccd1 vccd1 sky130_fd_sc_hd__decap_4
XFILLER_8_101 vssd1 vssd1 vccd1 vccd1 sky130_fd_sc_hd__decap_3
XFILLER_12_18 vssd1 vssd1 vccd1 vccd1 sky130_fd_sc_hd__decap_8
XFILLER_4_85 vssd1 vssd1 vccd1 vccd1 sky130_fd_sc_hd__decap_6
XFILLER_23_28 vssd1 vssd1 vccd1 vccd1 sky130_fd_sc_hd__fill_1
X_252_ _252_/A _252_/B vssd1 vssd1 vccd1 vccd1 _315_/A sky130_fd_sc_hd__xnor2_1
X_183_ _175_/Y _178_/X _182_/X counter_out[0] counter_out[1] vssd1 vssd1 vccd1 vccd1
+ _198_/A sky130_fd_sc_hd__o2111a_2
X_304_ _309_/CLK _304_/D _287_/Y vssd1 vssd1 vccd1 vccd1 counter_out[1] sky130_fd_sc_hd__dfrtp_4
X_235_ _236_/A _236_/B vssd1 vssd1 vccd1 vccd1 _241_/A sky130_fd_sc_hd__nand2_1
XFILLER_20_29 vssd1 vssd1 vccd1 vccd1 sky130_fd_sc_hd__decap_12
XFILLER_20_18 vssd1 vssd1 vccd1 vccd1 sky130_fd_sc_hd__decap_8
X_166_ _179_/B _165_/B _165_/C vssd1 vssd1 vccd1 vccd1 _167_/C sky130_fd_sc_hd__o21ai_1
XFILLER_19_103 vssd1 vssd1 vccd1 vccd1 sky130_fd_sc_hd__decap_8
X_149_ _149_/A _154_/A vssd1 vssd1 vccd1 vccd1 _149_/X sky130_fd_sc_hd__xor2_1
X_218_ _246_/A _246_/B vssd1 vssd1 vccd1 vccd1 _247_/A sky130_fd_sc_hd__nand2_1
XTAP_109 vssd1 vccd1 sky130_fd_sc_hd__tapvpwrvgnd_1
XFILLER_21_61 vssd1 vssd1 vccd1 vccd1 sky130_fd_sc_hd__fill_1
XFILLER_16_128 vssd1 vssd1 vccd1 vccd1 sky130_fd_sc_hd__decap_12
XPHY_3 vssd1 vssd1 vccd1 vccd1 sky130_fd_sc_hd__decap_3
XFILLER_2_108 vssd1 vssd1 vccd1 vccd1 sky130_fd_sc_hd__decap_4
XFILLER_4_75 vssd1 vssd1 vccd1 vccd1 sky130_fd_sc_hd__decap_8
X_182_ _182_/A _182_/B _182_/C _182_/D vssd1 vssd1 vccd1 vccd1 _182_/X sky130_fd_sc_hd__or4_1
X_251_ _253_/A _251_/B vssd1 vssd1 vccd1 vccd1 _252_/B sky130_fd_sc_hd__nand2_1
XFILLER_24_72 vssd1 vssd1 vccd1 vccd1 sky130_fd_sc_hd__decap_12
X_165_ _165_/A _165_/B _165_/C vssd1 vssd1 vccd1 vccd1 _167_/B sky130_fd_sc_hd__or3_1
XFILLER_1_32 vssd1 vssd1 vccd1 vccd1 sky130_fd_sc_hd__decap_4
X_234_ _234_/A _234_/B vssd1 vssd1 vccd1 vccd1 _234_/Y sky130_fd_sc_hd__xnor2_1
X_303_ _309_/CLK _303_/D _286_/Y vssd1 vssd1 vccd1 vccd1 counter_out[0] sky130_fd_sc_hd__dfrtp_4
X_148_ _155_/A _148_/B _155_/B vssd1 vssd1 vccd1 vccd1 _154_/A sky130_fd_sc_hd__or3_1
X_217_ _250_/A _250_/B vssd1 vssd1 vccd1 vccd1 _253_/A sky130_fd_sc_hd__nand2_1
XFILLER_10_41 vssd1 vssd1 vccd1 vccd1 sky130_fd_sc_hd__decap_4
XFILLER_21_51 vssd1 vssd1 vccd1 vccd1 sky130_fd_sc_hd__decap_4
XFILLER_16_107 vssd1 vssd1 vccd1 vccd1 sky130_fd_sc_hd__decap_4
XPHY_4 vssd1 vssd1 vccd1 vccd1 sky130_fd_sc_hd__decap_3
XFILLER_5_117 vssd1 vssd1 vccd1 vccd1 sky130_fd_sc_hd__decap_6
X_250_ _250_/A _250_/B vssd1 vssd1 vccd1 vccd1 _251_/B sky130_fd_sc_hd__or2_1
X_181_ _181_/A _181_/B _181_/C _163_/X vssd1 vssd1 vccd1 vccd1 _182_/D sky130_fd_sc_hd__or4b_1
XFILLER_13_74 vssd1 vssd1 vccd1 vccd1 sky130_fd_sc_hd__fill_1
XFILLER_13_52 vssd1 vssd1 vccd1 vccd1 sky130_fd_sc_hd__decap_4
XFILLER_1_131 vssd1 vssd1 vccd1 vccd1 sky130_fd_sc_hd__decap_4
Xbuffers\[19\]._0_ buffers\[19\]._0_/A vssd1 vssd1 vccd1 vccd1 buffers\[20\]._0_/A
+ sky130_fd_sc_hd__inv_2
X_164_ counter_out[1] _161_/X _162_/Y counter_out[0] _179_/B vssd1 vssd1 vccd1 vccd1
+ _181_/A sky130_fd_sc_hd__a32o_1
XFILLER_1_55 vssd1 vssd1 vccd1 vccd1 sky130_fd_sc_hd__fill_1
XFILLER_1_11 vssd1 vssd1 vccd1 vccd1 sky130_fd_sc_hd__decap_4
X_302_ _285_/Y _302_/D _233_/A vssd1 vssd1 vccd1 vccd1 ring_osc_counter_out[7] sky130_fd_sc_hd__dfrtp_4
X_233_ _233_/A _233_/B vssd1 vssd1 vccd1 vccd1 _234_/B sky130_fd_sc_hd__nand2_1
XFILLER_19_149 vssd1 vssd1 vccd1 vccd1 sky130_fd_sc_hd__fill_1
XFILLER_19_51 vssd1 vssd1 vccd1 vccd1 sky130_fd_sc_hd__decap_4
XFILLER_18_3 vssd1 vssd1 vccd1 vccd1 sky130_fd_sc_hd__decap_6
X_147_ _147_/A _147_/B vssd1 vssd1 vccd1 vccd1 _177_/B sky130_fd_sc_hd__xor2_1
X_216_ _254_/A _254_/B vssd1 vssd1 vccd1 vccd1 _255_/A sky130_fd_sc_hd__nand2_1
XFILLER_24_141 vssd1 vssd1 vccd1 vccd1 sky130_fd_sc_hd__fill_1
XPHY_5 vssd1 vssd1 vccd1 vccd1 sky130_fd_sc_hd__decap_3
XFILLER_7_65 vssd1 vssd1 vccd1 vccd1 sky130_fd_sc_hd__decap_3
XFILLER_16_74 vssd1 vssd1 vccd1 vccd1 sky130_fd_sc_hd__decap_8
XFILLER_8_126 vssd1 vssd1 vccd1 vccd1 sky130_fd_sc_hd__decap_12
XFILLER_13_86 vssd1 vssd1 vccd1 vccd1 sky130_fd_sc_hd__decap_12
X_180_ _180_/A _180_/B _180_/C _180_/D vssd1 vssd1 vccd1 vccd1 _181_/C sky130_fd_sc_hd__or4_1
X_163_ _161_/X _162_/Y counter_out[1] vssd1 vssd1 vccd1 vccd1 _163_/X sky130_fd_sc_hd__a21o_1
X_232_ _318_/A chain _232_/S vssd1 vssd1 vccd1 vccd1 _233_/B sky130_fd_sc_hd__mux2_1
X_301_ _284_/Y _301_/D _203_/Y vssd1 vssd1 vccd1 vccd1 ring_osc_counter_out[6] sky130_fd_sc_hd__dfrtp_4
XFILLER_1_89 vssd1 vssd1 vccd1 vccd1 sky130_fd_sc_hd__fill_1
XFILLER_1_45 vssd1 vssd1 vccd1 vccd1 sky130_fd_sc_hd__fill_1
Xbuffers\[18\]._0_ buffers\[18\]._0_/A vssd1 vssd1 vccd1 vccd1 buffers\[19\]._0_/A
+ sky130_fd_sc_hd__inv_2
XFILLER_10_21 vssd1 vssd1 vccd1 vccd1 sky130_fd_sc_hd__decap_6
X_146_ _155_/A _148_/B _149_/A _155_/B vssd1 vssd1 vccd1 vccd1 _147_/B sky130_fd_sc_hd__or4_1
X_215_ _257_/A _257_/B vssd1 vssd1 vccd1 vccd1 _215_/Y sky130_fd_sc_hd__nand2_1
XFILLER_21_42 vssd1 vssd1 vccd1 vccd1 sky130_fd_sc_hd__decap_4
XPHY_6 vssd1 vssd1 vccd1 vccd1 sky130_fd_sc_hd__decap_3
XFILLER_21_134 vssd1 vssd1 vccd1 vccd1 sky130_fd_sc_hd__fill_2
XFILLER_12_145 vssd1 vssd1 vccd1 vccd1 sky130_fd_sc_hd__decap_4
XFILLER_12_123 vssd1 vssd1 vccd1 vccd1 sky130_fd_sc_hd__decap_3
XFILLER_8_138 vssd1 vssd1 vccd1 vccd1 sky130_fd_sc_hd__fill_2
XFILLER_8_149 vssd1 vssd1 vccd1 vccd1 sky130_fd_sc_hd__fill_1
XFILLER_5_108 vssd1 vssd1 vccd1 vccd1 sky130_fd_sc_hd__decap_4
XFILLER_4_23 vssd1 vssd1 vccd1 vccd1 sky130_fd_sc_hd__decap_4
XFILLER_4_34 vssd1 vssd1 vccd1 vccd1 sky130_fd_sc_hd__decap_4
XFILLER_4_141 vssd1 vssd1 vccd1 vccd1 sky130_fd_sc_hd__fill_1
XFILLER_13_98 vssd1 vssd1 vccd1 vccd1 sky130_fd_sc_hd__decap_12
XFILLER_13_21 vssd1 vssd1 vccd1 vccd1 sky130_fd_sc_hd__decap_12
XFILLER_1_111 vssd1 vssd1 vccd1 vccd1 sky130_fd_sc_hd__fill_1
X_162_ _179_/B _165_/B vssd1 vssd1 vccd1 vccd1 _162_/Y sky130_fd_sc_hd__nand2_1
X_300_ _283_/Y _300_/D _204_/Y vssd1 vssd1 vccd1 vccd1 ring_osc_counter_out[5] sky130_fd_sc_hd__dfrtp_4
X_231_ _231_/A _231_/B vssd1 vssd1 vccd1 vccd1 _318_/A sky130_fd_sc_hd__xnor2_1
XFILLER_1_68 vssd1 vssd1 vccd1 vccd1 sky130_fd_sc_hd__decap_12
XFILLER_1_57 vssd1 vssd1 vccd1 vccd1 sky130_fd_sc_hd__decap_6
Xinput1 a_input[0] vssd1 vssd1 vccd1 vccd1 _236_/B sky130_fd_sc_hd__clkbuf_2
XTAP_90 vssd1 vccd1 sky130_fd_sc_hd__tapvpwrvgnd_1
XFILLER_25_6 vssd1 vssd1 vccd1 vccd1 sky130_fd_sc_hd__decap_4
X_145_ _173_/B vssd1 vssd1 vccd1 vccd1 _155_/B sky130_fd_sc_hd__dlymetal6s2s_1
X_214_ _214_/A chain vssd1 vssd1 vccd1 vccd1 _231_/A sky130_fd_sc_hd__xor2_1
XFILLER_15_132 vssd1 vssd1 vccd1 vccd1 sky130_fd_sc_hd__decap_4
XPHY_7 vssd1 vssd1 vccd1 vccd1 sky130_fd_sc_hd__decap_3
XFILLER_23_3 vssd1 vssd1 vccd1 vccd1 sky130_fd_sc_hd__decap_8
XFILLER_21_146 vssd1 vssd1 vccd1 vccd1 sky130_fd_sc_hd__decap_4
Xbuffers\[17\]._0_ buffers\[17\]._0_/A vssd1 vssd1 vccd1 vccd1 buffers\[18\]._0_/A
+ sky130_fd_sc_hd__inv_2
XFILLER_7_34 vssd1 vssd1 vccd1 vccd1 sky130_fd_sc_hd__decap_6
XFILLER_16_32 vssd1 vssd1 vccd1 vccd1 sky130_fd_sc_hd__decap_8
XFILLER_13_33 vssd1 vssd1 vccd1 vccd1 sky130_fd_sc_hd__decap_12
X_161_ _179_/B _165_/B vssd1 vssd1 vccd1 vccd1 _161_/X sky130_fd_sc_hd__or2_1
X_230_ _215_/Y _259_/A _258_/B vssd1 vssd1 vccd1 vccd1 _231_/B sky130_fd_sc_hd__a21o_1
XFILLER_1_25 vssd1 vssd1 vccd1 vccd1 sky130_fd_sc_hd__decap_4
XTAP_91 vssd1 vccd1 sky130_fd_sc_hd__tapvpwrvgnd_1
Xinput2 a_input[1] vssd1 vssd1 vccd1 vccd1 _239_/B sky130_fd_sc_hd__clkbuf_1
XFILLER_10_45 vssd1 vssd1 vccd1 vccd1 sky130_fd_sc_hd__fill_1
XTAP_80 vssd1 vccd1 sky130_fd_sc_hd__tapvpwrvgnd_1
X_144_ _165_/A _160_/A _165_/C _144_/D vssd1 vssd1 vccd1 vccd1 _173_/B sky130_fd_sc_hd__or4_1
X_213_ _285_/A _285_/B vssd1 vssd1 vccd1 vccd1 chain sky130_fd_sc_hd__nand2_4
XFILLER_21_66 vssd1 vssd1 vccd1 vccd1 sky130_fd_sc_hd__decap_4
XFILLER_21_55 vssd1 vssd1 vccd1 vccd1 sky130_fd_sc_hd__fill_1
XFILLER_16_3 vssd1 vssd1 vccd1 vccd1 sky130_fd_sc_hd__decap_12
XFILLER_15_111 vssd1 vssd1 vccd1 vccd1 sky130_fd_sc_hd__fill_1
XPHY_8 vssd1 vssd1 vccd1 vccd1 sky130_fd_sc_hd__decap_3
XFILLER_7_57 vssd1 vssd1 vccd1 vccd1 sky130_fd_sc_hd__decap_8
XFILLER_12_136 vssd1 vssd1 vccd1 vccd1 sky130_fd_sc_hd__decap_4
XFILLER_12_103 vssd1 vssd1 vccd1 vccd1 sky130_fd_sc_hd__decap_12
XFILLER_8_107 vssd1 vssd1 vccd1 vccd1 sky130_fd_sc_hd__decap_12
XFILLER_4_121 vssd1 vssd1 vccd1 vccd1 sky130_fd_sc_hd__decap_4
Xbuffers\[16\]._0_ buffers\[16\]._0_/A vssd1 vssd1 vccd1 vccd1 buffers\[17\]._0_/A
+ sky130_fd_sc_hd__inv_2
XFILLER_13_45 vssd1 vssd1 vccd1 vccd1 sky130_fd_sc_hd__decap_3
XFILLER_1_146 vssd1 vssd1 vccd1 vccd1 sky130_fd_sc_hd__decap_4
XFILLER_1_135 vssd1 vssd1 vccd1 vccd1 sky130_fd_sc_hd__fill_1
XFILLER_1_124 vssd1 vssd1 vccd1 vccd1 sky130_fd_sc_hd__fill_2
XFILLER_24_88 vssd1 vssd1 vccd1 vccd1 sky130_fd_sc_hd__decap_12
X_160_ _160_/A vssd1 vssd1 vccd1 vccd1 _165_/B sky130_fd_sc_hd__clkbuf_1
X_289_ _289_/A vssd1 vssd1 vccd1 vccd1 _294_/A sky130_fd_sc_hd__buf_2
Xinput3 a_input[2] vssd1 vssd1 vccd1 vccd1 _222_/B sky130_fd_sc_hd__clkbuf_1
XTAP_92 vssd1 vccd1 sky130_fd_sc_hd__tapvpwrvgnd_1
XTAP_70 vssd1 vccd1 sky130_fd_sc_hd__tapvpwrvgnd_1
XTAP_81 vssd1 vccd1 sky130_fd_sc_hd__tapvpwrvgnd_1
XFILLER_19_55 vssd1 vssd1 vccd1 vccd1 sky130_fd_sc_hd__fill_1
X_212_ _147_/A _147_/B _182_/X vssd1 vssd1 vccd1 vccd1 time_count_overflow sky130_fd_sc_hd__o21ba_2
X_143_ counter_out[2] vssd1 vssd1 vccd1 vccd1 _193_/A sky130_fd_sc_hd__clkbuf_2
XPHY_9 vssd1 vssd1 vccd1 vccd1 sky130_fd_sc_hd__decap_3
XFILLER_21_126 vssd1 vssd1 vccd1 vccd1 sky130_fd_sc_hd__decap_8
XFILLER_21_104 vssd1 vssd1 vccd1 vccd1 sky130_fd_sc_hd__decap_8
XFILLER_12_115 vssd1 vssd1 vccd1 vccd1 sky130_fd_sc_hd__decap_8
XFILLER_8_119 vssd1 vssd1 vccd1 vccd1 sky130_fd_sc_hd__decap_3
XFILLER_13_79 vssd1 vssd1 vccd1 vccd1 sky130_fd_sc_hd__decap_4
XFILLER_13_68 vssd1 vssd1 vccd1 vccd1 sky130_fd_sc_hd__decap_6
XFILLER_13_57 vssd1 vssd1 vccd1 vccd1 sky130_fd_sc_hd__decap_6
XFILLER_8_6 vssd1 vssd1 vccd1 vccd1 sky130_fd_sc_hd__decap_8
XFILLER_24_67 vssd1 vssd1 vccd1 vccd1 sky130_fd_sc_hd__fill_1
XFILLER_1_49 vssd1 vssd1 vccd1 vccd1 sky130_fd_sc_hd__decap_6
Xbuffers\[15\]._0_ buffers\[15\]._0_/A vssd1 vssd1 vccd1 vccd1 buffers\[16\]._0_/A
+ sky130_fd_sc_hd__inv_2
XFILLER_6_3 vssd1 vssd1 vccd1 vccd1 sky130_fd_sc_hd__fill_2
Xinput4 a_input[3] vssd1 vssd1 vccd1 vccd1 _246_/B sky130_fd_sc_hd__clkbuf_1
XTAP_93 vssd1 vccd1 sky130_fd_sc_hd__tapvpwrvgnd_1
XTAP_60 vssd1 vccd1 sky130_fd_sc_hd__tapvpwrvgnd_1
XTAP_71 vssd1 vccd1 sky130_fd_sc_hd__tapvpwrvgnd_1
X_288_ _288_/A vssd1 vssd1 vccd1 vccd1 _288_/Y sky130_fd_sc_hd__inv_2
XTAP_82 vssd1 vccd1 sky130_fd_sc_hd__tapvpwrvgnd_1
X_142_ counter_out[5] vssd1 vssd1 vccd1 vccd1 _188_/A sky130_fd_sc_hd__clkbuf_2
XFILLER_19_67 vssd1 vssd1 vccd1 vccd1 sky130_fd_sc_hd__decap_12
X_211_ ring_osc_counter_out[0] vssd1 vssd1 vccd1 vccd1 _295_/D sky130_fd_sc_hd__clkinv_2
XFILLER_10_14 vssd1 vssd1 vccd1 vccd1 sky130_fd_sc_hd__decap_4
XFILLER_10_69 vssd1 vssd1 vccd1 vccd1 sky130_fd_sc_hd__decap_8
XFILLER_24_146 vssd1 vssd1 vccd1 vccd1 sky130_fd_sc_hd__decap_4
XFILLER_21_57 vssd1 vssd1 vccd1 vccd1 sky130_fd_sc_hd__decap_4
XFILLER_2_92 vssd1 vssd1 vccd1 vccd1 sky130_fd_sc_hd__decap_4
XFILLER_15_146 vssd1 vssd1 vccd1 vccd1 sky130_fd_sc_hd__decap_4
XFILLER_7_48 vssd1 vssd1 vccd1 vccd1 sky130_fd_sc_hd__decap_8
XFILLER_16_46 vssd1 vssd1 vccd1 vccd1 sky130_fd_sc_hd__decap_4
XFILLER_16_24 vssd1 vssd1 vccd1 vccd1 sky130_fd_sc_hd__decap_4
XFILLER_12_149 vssd1 vssd1 vccd1 vccd1 sky130_fd_sc_hd__fill_1
XFILLER_21_3 vssd1 vssd1 vccd1 vccd1 sky130_fd_sc_hd__decap_12
XFILLER_4_16 vssd1 vssd1 vccd1 vccd1 sky130_fd_sc_hd__decap_4
XFILLER_4_27 vssd1 vssd1 vccd1 vccd1 sky130_fd_sc_hd__fill_1
XFILLER_13_14 vssd1 vssd1 vccd1 vccd1 sky130_fd_sc_hd__decap_4
XFILLER_24_35 vssd1 vssd1 vccd1 vccd1 sky130_fd_sc_hd__fill_1