* NGSPICE file created from instrumented_adder.ext - technology: sky130A

* Black-box entry subcircuit for sky130_fd_sc_hd__decap_4 abstract view
.subckt sky130_fd_sc_hd__decap_4 VGND VNB VPB VPWR
.ends

* Black-box entry subcircuit for sky130_fd_sc_hd__inv_2 abstract view
.subckt sky130_fd_sc_hd__inv_2 A VGND VNB VPB VPWR Y
.ends

* Black-box entry subcircuit for sky130_fd_sc_hd__decap_12 abstract view
.subckt sky130_fd_sc_hd__decap_12 VGND VNB VPB VPWR
.ends

* Black-box entry subcircuit for sky130_fd_sc_hd__o21bai_1 abstract view
.subckt sky130_fd_sc_hd__o21bai_1 A1 A2 B1_N VGND VNB VPB VPWR Y
.ends

* Black-box entry subcircuit for sky130_fd_sc_hd__nand2_1 abstract view
.subckt sky130_fd_sc_hd__nand2_1 A B VGND VNB VPB VPWR Y
.ends

* Black-box entry subcircuit for sky130_fd_sc_hd__a21o_1 abstract view
.subckt sky130_fd_sc_hd__a21o_1 A1 A2 B1 VGND VNB VPB VPWR X
.ends

* Black-box entry subcircuit for sky130_fd_sc_hd__decap_6 abstract view
.subckt sky130_fd_sc_hd__decap_6 VGND VNB VPB VPWR
.ends

* Black-box entry subcircuit for sky130_fd_sc_hd__decap_8 abstract view
.subckt sky130_fd_sc_hd__decap_8 VGND VNB VPB VPWR
.ends

* Black-box entry subcircuit for sky130_fd_sc_hd__fill_1 abstract view
.subckt sky130_fd_sc_hd__fill_1 VGND VNB VPB VPWR
.ends

* Black-box entry subcircuit for sky130_fd_sc_hd__a21oi_1 abstract view
.subckt sky130_fd_sc_hd__a21oi_1 A1 A2 B1 VGND VNB VPB VPWR Y
.ends

* Black-box entry subcircuit for sky130_fd_sc_hd__decap_3 abstract view
.subckt sky130_fd_sc_hd__decap_3 VGND VNB VPB VPWR
.ends

* Black-box entry subcircuit for sky130_fd_sc_hd__a32o_1 abstract view
.subckt sky130_fd_sc_hd__a32o_1 A1 A2 A3 B1 B2 VGND VNB VPB VPWR X
.ends

* Black-box entry subcircuit for sky130_fd_sc_hd__and2_1 abstract view
.subckt sky130_fd_sc_hd__and2_1 A B VGND VNB VPB VPWR X
.ends

* Black-box entry subcircuit for sky130_fd_sc_hd__xnor2_1 abstract view
.subckt sky130_fd_sc_hd__xnor2_1 A B VGND VNB VPB VPWR Y
.ends

* Black-box entry subcircuit for sky130_fd_sc_hd__or2_1 abstract view
.subckt sky130_fd_sc_hd__or2_1 A B VGND VNB VPB VPWR X
.ends

* Black-box entry subcircuit for sky130_fd_sc_hd__nor4_1 abstract view
.subckt sky130_fd_sc_hd__nor4_1 A B C D VGND VNB VPB VPWR Y
.ends

* Black-box entry subcircuit for sky130_fd_sc_hd__o21ai_1 abstract view
.subckt sky130_fd_sc_hd__o21ai_1 A1 A2 B1 VGND VNB VPB VPWR Y
.ends

* Black-box entry subcircuit for sky130_fd_sc_hd__fill_2 abstract view
.subckt sky130_fd_sc_hd__fill_2 VGND VNB VPB VPWR
.ends

* Black-box entry subcircuit for sky130_fd_sc_hd__nor2_1 abstract view
.subckt sky130_fd_sc_hd__nor2_1 A B VGND VNB VPB VPWR Y
.ends

* Black-box entry subcircuit for sky130_fd_sc_hd__buf_2 abstract view
.subckt sky130_fd_sc_hd__buf_2 A VGND VNB VPB VPWR X
.ends

* Black-box entry subcircuit for sky130_fd_sc_hd__and4b_1 abstract view
.subckt sky130_fd_sc_hd__and4b_1 A_N B C D VGND VNB VPB VPWR X
.ends

* Black-box entry subcircuit for sky130_fd_sc_hd__and3_1 abstract view
.subckt sky130_fd_sc_hd__and3_1 A B C VGND VNB VPB VPWR X
.ends

* Black-box entry subcircuit for sky130_fd_sc_hd__o221a_1 abstract view
.subckt sky130_fd_sc_hd__o221a_1 A1 A2 B1 B2 C1 VGND VNB VPB VPWR X
.ends

* Black-box entry subcircuit for sky130_fd_sc_hd__dfrtp_4 abstract view
.subckt sky130_fd_sc_hd__dfrtp_4 CLK D RESET_B VGND VNB VPB VPWR Q
.ends

* Black-box entry subcircuit for sky130_fd_sc_hd__clkbuf_16 abstract view
.subckt sky130_fd_sc_hd__clkbuf_16 A VGND VNB VPB VPWR X
.ends

* Black-box entry subcircuit for sky130_fd_sc_hd__xor2_1 abstract view
.subckt sky130_fd_sc_hd__xor2_1 A B VGND VNB VPB VPWR X
.ends

* Black-box entry subcircuit for sky130_fd_sc_hd__o21ba_1 abstract view
.subckt sky130_fd_sc_hd__o21ba_1 A1 A2 B1_N VGND VNB VPB VPWR X
.ends

* Black-box entry subcircuit for sky130_fd_sc_hd__nor3b_1 abstract view
.subckt sky130_fd_sc_hd__nor3b_1 A B C_N VGND VNB VPB VPWR Y
.ends

* Black-box entry subcircuit for sky130_fd_sc_hd__and4_1 abstract view
.subckt sky130_fd_sc_hd__and4_1 A B C D VGND VNB VPB VPWR X
.ends

* Black-box entry subcircuit for sky130_fd_sc_hd__or3_1 abstract view
.subckt sky130_fd_sc_hd__or3_1 A B C VGND VNB VPB VPWR X
.ends

* Black-box entry subcircuit for sky130_fd_sc_hd__o22a_1 abstract view
.subckt sky130_fd_sc_hd__o22a_1 A1 A2 B1 B2 VGND VNB VPB VPWR X
.ends

* Black-box entry subcircuit for sky130_fd_sc_hd__tapvpwrvgnd_1 abstract view
.subckt sky130_fd_sc_hd__tapvpwrvgnd_1 VGND VPWR
.ends

* Black-box entry subcircuit for sky130_fd_sc_hd__clkbuf_1 abstract view
.subckt sky130_fd_sc_hd__clkbuf_1 A VGND VNB VPB VPWR X
.ends

* Black-box entry subcircuit for sky130_fd_sc_hd__dlymetal6s2s_1 abstract view
.subckt sky130_fd_sc_hd__dlymetal6s2s_1 A VGND VNB VPB VPWR X
.ends

* Black-box entry subcircuit for sky130_fd_sc_hd__clkbuf_2 abstract view
.subckt sky130_fd_sc_hd__clkbuf_2 A VGND VNB VPB VPWR X
.ends

* Black-box entry subcircuit for sky130_fd_sc_hd__o31ai_1 abstract view
.subckt sky130_fd_sc_hd__o31ai_1 A1 A2 A3 B1 VGND VNB VPB VPWR Y
.ends

* Black-box entry subcircuit for sky130_fd_sc_hd__xor2_2 abstract view
.subckt sky130_fd_sc_hd__xor2_2 A B VGND VNB VPB VPWR X
.ends

* Black-box entry subcircuit for sky130_fd_sc_hd__or4_2 abstract view
.subckt sky130_fd_sc_hd__or4_2 A B C D VGND VNB VPB VPWR X
.ends

* Black-box entry subcircuit for sky130_fd_sc_hd__or4_1 abstract view
.subckt sky130_fd_sc_hd__or4_1 A B C D VGND VNB VPB VPWR X
.ends

* Black-box entry subcircuit for sky130_fd_sc_hd__a31o_1 abstract view
.subckt sky130_fd_sc_hd__a31o_1 A1 A2 A3 B1 VGND VNB VPB VPWR X
.ends

* Black-box entry subcircuit for sky130_fd_sc_hd__clkinv_2 abstract view
.subckt sky130_fd_sc_hd__clkinv_2 A VGND VNB VPB VPWR Y
.ends

* Black-box entry subcircuit for sky130_fd_sc_hd__nand2_4 abstract view
.subckt sky130_fd_sc_hd__nand2_4 A B VGND VNB VPB VPWR Y
.ends

* Black-box entry subcircuit for sky130_fd_sc_hd__nand3b_1 abstract view
.subckt sky130_fd_sc_hd__nand3b_1 A_N B C VGND VNB VPB VPWR Y
.ends

* Black-box entry subcircuit for sky130_fd_sc_hd__o22ai_1 abstract view
.subckt sky130_fd_sc_hd__o22ai_1 A1 A2 B1 B2 VGND VNB VPB VPWR Y
.ends

* Black-box entry subcircuit for sky130_fd_sc_hd__o22ai_2 abstract view
.subckt sky130_fd_sc_hd__o22ai_2 A1 A2 B1 B2 VGND VNB VPB VPWR Y
.ends

* Black-box entry subcircuit for sky130_fd_sc_hd__a2bb2o_1 abstract view
.subckt sky130_fd_sc_hd__a2bb2o_1 A1_N A2_N B1 B2 VGND VNB VPB VPWR X
.ends

.subckt instrumented_adder b[0] b[1] b[2] b[3] b[4] b[5] b[6] b[7] bypass chain clk
+ counter_end[0] counter_end[1] counter_end[2] counter_end[3] counter_end[4] counter_end[5]
+ counter_end[6] counter_end[7] counter_out[0] counter_out[1] counter_out[2] counter_out[3]
+ counter_out[4] counter_out[5] counter_out[6] counter_out[7] extra_inverter reset
+ ring_osc_counter_out[0] ring_osc_counter_out[1] ring_osc_counter_out[2] ring_osc_counter_out[3]
+ ring_osc_counter_out[4] ring_osc_counter_out[5] ring_osc_counter_out[6] ring_osc_counter_out[7]
+ run time_count_overflow vccd1 vssd1
XFILLER_3_12 vssd1 vssd1 vccd1 vccd1 sky130_fd_sc_hd__decap_4
Xbuffers\[6\]._0_ buffers\[6\]._0_/A vssd1 vssd1 vccd1 vccd1 buffers\[7\]._0_/A sky130_fd_sc_hd__inv_2
XFILLER_10_114 vssd1 vssd1 vccd1 vccd1 sky130_fd_sc_hd__decap_12
X_131_ _165_/B _129_/X _165_/A vssd1 vssd1 vccd1 vccd1 _131_/Y sky130_fd_sc_hd__o21bai_1
X_200_ _201_/A _201_/B vssd1 vssd1 vccd1 vccd1 _200_/Y sky130_fd_sc_hd__nand2_1
XFILLER_9_33 vssd1 vssd1 vccd1 vccd1 sky130_fd_sc_hd__decap_4
X_114_ _109_/X _110_/Y counter_out[5] vssd1 vssd1 vccd1 vccd1 _119_/B sky130_fd_sc_hd__a21o_1
XFILLER_20_98 vssd1 vssd1 vccd1 vccd1 sky130_fd_sc_hd__decap_4
XFILLER_6_12 vssd1 vssd1 vccd1 vccd1 sky130_fd_sc_hd__decap_6
XFILLER_6_34 vssd1 vssd1 vccd1 vccd1 sky130_fd_sc_hd__decap_8
XFILLER_6_89 vssd1 vssd1 vccd1 vccd1 sky130_fd_sc_hd__fill_1
XFILLER_13_3 vssd1 vssd1 vccd1 vccd1 sky130_fd_sc_hd__decap_6
XFILLER_15_43 vssd1 vssd1 vccd1 vccd1 sky130_fd_sc_hd__decap_12
XFILLER_15_21 vssd1 vssd1 vccd1 vccd1 sky130_fd_sc_hd__decap_4
XFILLER_3_57 vssd1 vssd1 vccd1 vccd1 sky130_fd_sc_hd__decap_12
XFILLER_9_105 vssd1 vssd1 vccd1 vccd1 sky130_fd_sc_hd__decap_6
XFILLER_13_101 vssd1 vssd1 vccd1 vccd1 sky130_fd_sc_hd__fill_1
XFILLER_6_108 vssd1 vssd1 vccd1 vccd1 sky130_fd_sc_hd__decap_12
XFILLER_10_126 vssd1 vssd1 vccd1 vccd1 sky130_fd_sc_hd__decap_4
XFILLER_12_22 vssd1 vssd1 vccd1 vccd1 sky130_fd_sc_hd__decap_6
XFILLER_12_33 vssd1 vssd1 vccd1 vccd1 sky130_fd_sc_hd__decap_6
XFILLER_12_44 vssd1 vssd1 vccd1 vccd1 sky130_fd_sc_hd__decap_4
XFILLER_12_55 vssd1 vssd1 vccd1 vccd1 sky130_fd_sc_hd__fill_1
X_130_ _125_/B _125_/C counter_out[2] vssd1 vssd1 vccd1 vccd1 _165_/A sky130_fd_sc_hd__a21oi_1
XFILLER_2_100 vssd1 vssd1 vccd1 vccd1 sky130_fd_sc_hd__decap_4
XFILLER_9_23 vssd1 vssd1 vccd1 vccd1 sky130_fd_sc_hd__decap_3
XFILLER_9_67 vssd1 vssd1 vccd1 vccd1 sky130_fd_sc_hd__decap_4
Xbuffers\[5\]._0_ buffers\[5\]._0_/A vssd1 vssd1 vccd1 vccd1 buffers\[6\]._0_/A sky130_fd_sc_hd__inv_2
X_113_ counter_out[5] _109_/X _110_/Y _112_/Y counter_out[4] vssd1 vssd1 vccd1 vccd1
+ _116_/A sky130_fd_sc_hd__a32o_1
XFILLER_20_33 vssd1 vssd1 vccd1 vccd1 sky130_fd_sc_hd__decap_12
XFILLER_6_24 vssd1 vssd1 vccd1 vccd1 sky130_fd_sc_hd__decap_4
XFILLER_6_68 vssd1 vssd1 vccd1 vccd1 sky130_fd_sc_hd__decap_6
XFILLER_15_55 vssd1 vssd1 vccd1 vccd1 sky130_fd_sc_hd__fill_1
XFILLER_16_121 vssd1 vssd1 vccd1 vccd1 sky130_fd_sc_hd__decap_8
XFILLER_15_99 vssd1 vssd1 vccd1 vccd1 sky130_fd_sc_hd__decap_12
XFILLER_13_113 vssd1 vssd1 vccd1 vccd1 sky130_fd_sc_hd__fill_1
XFILLER_3_25 vssd1 vssd1 vccd1 vccd1 sky130_fd_sc_hd__decap_8
XFILLER_3_69 vssd1 vssd1 vccd1 vccd1 sky130_fd_sc_hd__decap_3
XFILLER_12_67 vssd1 vssd1 vccd1 vccd1 sky130_fd_sc_hd__decap_3
XFILLER_3_3 vssd1 vssd1 vccd1 vccd1 sky130_fd_sc_hd__decap_4
X_189_ _191_/B _189_/B vssd1 vssd1 vccd1 vccd1 _190_/A sky130_fd_sc_hd__and2_1
XFILLER_9_57 vssd1 vssd1 vccd1 vccd1 sky130_fd_sc_hd__decap_4
X_112_ _112_/A _112_/B vssd1 vssd1 vccd1 vccd1 _112_/Y sky130_fd_sc_hd__xnor2_1
Xbuffers\[4\]._0_ buffers\[4\]._0_/A vssd1 vssd1 vccd1 vccd1 buffers\[5\]._0_/A sky130_fd_sc_hd__inv_2
XFILLER_16_111 vssd1 vssd1 vccd1 vccd1 sky130_fd_sc_hd__decap_4
XFILLER_15_12 vssd1 vssd1 vccd1 vccd1 sky130_fd_sc_hd__decap_6
XFILLER_3_37 vssd1 vssd1 vccd1 vccd1 sky130_fd_sc_hd__decap_4
XFILLER_12_13 vssd1 vssd1 vccd1 vccd1 sky130_fd_sc_hd__decap_6
XFILLER_0_27 vssd1 vssd1 vccd1 vccd1 sky130_fd_sc_hd__fill_1
X_188_ ring_osc_counter_out[6] _188_/B vssd1 vssd1 vccd1 vccd1 _189_/B sky130_fd_sc_hd__or2_1
XFILLER_18_34 vssd1 vssd1 vccd1 vccd1 sky130_fd_sc_hd__decap_4
XFILLER_18_23 vssd1 vssd1 vccd1 vccd1 sky130_fd_sc_hd__decap_4
X_111_ _121_/A _127_/B _122_/C _111_/D vssd1 vssd1 vccd1 vccd1 _112_/B sky130_fd_sc_hd__nor4_1
XFILLER_20_24 vssd1 vssd1 vccd1 vccd1 sky130_fd_sc_hd__decap_4
XFILLER_20_13 vssd1 vssd1 vccd1 vccd1 sky130_fd_sc_hd__decap_8
XFILLER_1_81 vssd1 vssd1 vccd1 vccd1 sky130_fd_sc_hd__decap_4
XFILLER_20_79 vssd1 vssd1 vccd1 vccd1 sky130_fd_sc_hd__decap_4
XFILLER_10_90 vssd1 vssd1 vccd1 vccd1 sky130_fd_sc_hd__decap_12
XFILLER_15_57 vssd1 vssd1 vccd1 vccd1 sky130_fd_sc_hd__decap_12
Xbuffers\[3\]._0_ buffers\[3\]._0_/A vssd1 vssd1 vccd1 vccd1 buffers\[4\]._0_/A sky130_fd_sc_hd__inv_2
X_187_ ring_osc_counter_out[6] _188_/B vssd1 vssd1 vccd1 vccd1 _191_/B sky130_fd_sc_hd__nand2_1
XFILLER_9_15 vssd1 vssd1 vccd1 vccd1 sky130_fd_sc_hd__decap_8
X_110_ _112_/A _109_/C _109_/B vssd1 vssd1 vccd1 vccd1 _110_/Y sky130_fd_sc_hd__o21ai_1
XFILLER_1_60 vssd1 vssd1 vccd1 vccd1 sky130_fd_sc_hd__decap_12
XFILLER_15_69 vssd1 vssd1 vccd1 vccd1 sky130_fd_sc_hd__fill_2
XFILLER_12_59 vssd1 vssd1 vccd1 vccd1 sky130_fd_sc_hd__decap_8
XFILLER_5_101 vssd1 vssd1 vccd1 vccd1 sky130_fd_sc_hd__decap_8
Xbuffers\[2\]._0_ buffers\[2\]._0_/A vssd1 vssd1 vccd1 vccd1 buffers\[3\]._0_/A sky130_fd_sc_hd__inv_2
X_186_ _188_/B _186_/B vssd1 vssd1 vccd1 vccd1 _216_/D sky130_fd_sc_hd__nor2_1
XFILLER_13_80 vssd1 vssd1 vccd1 vccd1 sky130_fd_sc_hd__decap_4
XFILLER_1_3 vssd1 vssd1 vccd1 vccd1 sky130_fd_sc_hd__decap_4
XFILLER_1_72 vssd1 vssd1 vccd1 vccd1 sky130_fd_sc_hd__fill_2
XFILLER_1_50 vssd1 vssd1 vccd1 vccd1 sky130_fd_sc_hd__decap_6
X_169_ _169_/A vssd1 vssd1 vccd1 vccd1 time_count_overflow sky130_fd_sc_hd__buf_2
XPHY_0 vssd1 vssd1 vccd1 vccd1 sky130_fd_sc_hd__decap_3
X_185_ ring_osc_counter_out[4] _184_/C ring_osc_counter_out[5] vssd1 vssd1 vccd1 vccd1
+ _186_/B sky130_fd_sc_hd__a21oi_1
XFILLER_3_7 vssd1 vssd1 vccd1 vccd1 sky130_fd_sc_hd__fill_1
XFILLER_2_127 vssd1 vssd1 vccd1 vccd1 sky130_fd_sc_hd__decap_4
XFILLER_0_19 vssd1 vssd1 vccd1 vccd1 sky130_fd_sc_hd__fill_1
XFILLER_18_15 vssd1 vssd1 vccd1 vccd1 sky130_fd_sc_hd__decap_4
X_168_ _164_/X _168_/B _168_/C _168_/D vssd1 vssd1 vccd1 vccd1 _169_/A sky130_fd_sc_hd__and4b_1
Xbuffers\[1\]._0_ buffers\[1\]._0_/A vssd1 vssd1 vccd1 vccd1 buffers\[2\]._0_/A sky130_fd_sc_hd__inv_2
XFILLER_19_101 vssd1 vssd1 vccd1 vccd1 sky130_fd_sc_hd__fill_1
XFILLER_19_91 vssd1 vssd1 vccd1 vccd1 sky130_fd_sc_hd__fill_1
XFILLER_6_18 vssd1 vssd1 vccd1 vccd1 sky130_fd_sc_hd__fill_1
XFILLER_13_9 vssd1 vssd1 vccd1 vccd1 sky130_fd_sc_hd__fill_1
XFILLER_21_81 vssd1 vssd1 vccd1 vccd1 sky130_fd_sc_hd__decap_3
XPHY_1 vssd1 vssd1 vccd1 vccd1 sky130_fd_sc_hd__decap_3
XFILLER_13_129 vssd1 vssd1 vccd1 vccd1 sky130_fd_sc_hd__fill_2
XFILLER_7_83 vssd1 vssd1 vccd1 vccd1 sky130_fd_sc_hd__decap_4
XFILLER_12_39 vssd1 vssd1 vccd1 vccd1 sky130_fd_sc_hd__fill_1
X_184_ ring_osc_counter_out[4] ring_osc_counter_out[5] _184_/C vssd1 vssd1 vccd1 vccd1
+ _188_/B sky130_fd_sc_hd__and3_1
XFILLER_18_38 vssd1 vssd1 vccd1 vccd1 sky130_fd_sc_hd__fill_1
XFILLER_18_27 vssd1 vssd1 vccd1 vccd1 sky130_fd_sc_hd__fill_1
X_167_ _106_/A _106_/B _123_/Y _144_/A _166_/Y vssd1 vssd1 vccd1 vccd1 _168_/D sky130_fd_sc_hd__o221a_1
XFILLER_1_30 vssd1 vssd1 vccd1 vccd1 sky130_fd_sc_hd__decap_6
XFILLER_19_113 vssd1 vssd1 vccd1 vccd1 sky130_fd_sc_hd__decap_4
XFILLER_10_83 vssd1 vssd1 vccd1 vccd1 sky130_fd_sc_hd__fill_1
X_219_ _224_/CLK _219_/D _202_/Y vssd1 vssd1 vccd1 vccd1 counter_out[0] sky130_fd_sc_hd__dfrtp_4
XFILLER_16_105 vssd1 vssd1 vccd1 vccd1 sky130_fd_sc_hd__fill_2
XFILLER_15_28 vssd1 vssd1 vccd1 vccd1 sky130_fd_sc_hd__decap_12
Xbuffers\[0\]._0_ _175_/Y vssd1 vssd1 vccd1 vccd1 buffers\[1\]._0_/A sky130_fd_sc_hd__inv_2
XPHY_2 vssd1 vssd1 vccd1 vccd1 sky130_fd_sc_hd__decap_3
Xclkbuf_0_clk clk vssd1 vssd1 vccd1 vccd1 clkbuf_0_clk/X sky130_fd_sc_hd__clkbuf_16
XFILLER_11_7 vssd1 vssd1 vccd1 vccd1 sky130_fd_sc_hd__decap_4
XFILLER_13_108 vssd1 vssd1 vccd1 vccd1 sky130_fd_sc_hd__decap_4
XFILLER_12_29 vssd1 vssd1 vccd1 vccd1 sky130_fd_sc_hd__fill_1
XFILLER_4_52 vssd1 vssd1 vccd1 vccd1 sky130_fd_sc_hd__decap_12
X_183_ ring_osc_counter_out[4] _184_/C vssd1 vssd1 vccd1 vccd1 _215_/D sky130_fd_sc_hd__xor2_1
X_166_ _166_/A _166_/B vssd1 vssd1 vccd1 vccd1 _166_/Y sky130_fd_sc_hd__nand2_1
XFILLER_19_60 vssd1 vssd1 vccd1 vccd1 sky130_fd_sc_hd__decap_6
X_218_ _201_/Y _218_/D _155_/Y vssd1 vssd1 vccd1 vccd1 ring_osc_counter_out[7] sky130_fd_sc_hd__dfrtp_4
X_149_ counter_out[2] _148_/X _146_/X vssd1 vssd1 vccd1 vccd1 _221_/D sky130_fd_sc_hd__o21ba_1
XPHY_3 vssd1 vssd1 vccd1 vccd1 sky130_fd_sc_hd__decap_3
XFILLER_16_83 vssd1 vssd1 vccd1 vccd1 sky130_fd_sc_hd__fill_1
XFILLER_5_116 vssd1 vssd1 vccd1 vccd1 sky130_fd_sc_hd__decap_12
XFILLER_4_64 vssd1 vssd1 vccd1 vccd1 sky130_fd_sc_hd__decap_12
X_182_ _184_/C _182_/B vssd1 vssd1 vccd1 vccd1 _214_/D sky130_fd_sc_hd__nor2_1
X_165_ _165_/A _165_/B _129_/X vssd1 vssd1 vccd1 vccd1 _168_/C sky130_fd_sc_hd__nor3b_1
XFILLER_19_83 vssd1 vssd1 vccd1 vccd1 sky130_fd_sc_hd__decap_8
X_217_ _200_/Y _217_/D _156_/Y vssd1 vssd1 vccd1 vccd1 ring_osc_counter_out[6] sky130_fd_sc_hd__dfrtp_4
X_148_ counter_out[1] _166_/A _150_/B _150_/C vssd1 vssd1 vccd1 vccd1 _148_/X sky130_fd_sc_hd__and4_1
XFILLER_10_52 vssd1 vssd1 vccd1 vccd1 sky130_fd_sc_hd__decap_4
XFILLER_10_85 vssd1 vssd1 vccd1 vccd1 sky130_fd_sc_hd__fill_2
XFILLER_16_129 vssd1 vssd1 vccd1 vccd1 sky130_fd_sc_hd__fill_2
XPHY_4 vssd1 vssd1 vccd1 vccd1 sky130_fd_sc_hd__decap_3
XFILLER_21_121 vssd1 vssd1 vccd1 vccd1 sky130_fd_sc_hd__decap_3
XFILLER_16_73 vssd1 vssd1 vccd1 vccd1 sky130_fd_sc_hd__fill_1
XFILLER_8_103 vssd1 vssd1 vccd1 vccd1 sky130_fd_sc_hd__fill_1
XFILLER_5_128 vssd1 vssd1 vccd1 vccd1 sky130_fd_sc_hd__decap_3
XFILLER_4_76 vssd1 vssd1 vccd1 vccd1 sky130_fd_sc_hd__decap_8
X_181_ ring_osc_counter_out[3] _181_/B vssd1 vssd1 vccd1 vccd1 _182_/B sky130_fd_sc_hd__nor2_1
XFILLER_1_120 vssd1 vssd1 vccd1 vccd1 sky130_fd_sc_hd__decap_4
Xbuffers\[19\]._0_ buffers\[19\]._0_/A vssd1 vssd1 vccd1 vccd1 buffers\[20\]._0_/A
+ sky130_fd_sc_hd__inv_2
XFILLER_18_19 vssd1 vssd1 vccd1 vccd1 sky130_fd_sc_hd__fill_1
X_164_ _164_/A _164_/B _164_/C vssd1 vssd1 vccd1 vccd1 _164_/X sky130_fd_sc_hd__or3_1
XFILLER_1_11 vssd1 vssd1 vccd1 vccd1 sky130_fd_sc_hd__decap_8
XFILLER_19_127 vssd1 vssd1 vccd1 vccd1 sky130_fd_sc_hd__decap_4
XFILLER_19_73 vssd1 vssd1 vccd1 vccd1 sky130_fd_sc_hd__decap_4
X_216_ _199_/Y _216_/D _157_/Y vssd1 vssd1 vccd1 vccd1 ring_osc_counter_out[5] sky130_fd_sc_hd__dfrtp_4
XFILLER_18_3 vssd1 vssd1 vccd1 vccd1 sky130_fd_sc_hd__decap_12
X_147_ _144_/A _146_/X _144_/X vssd1 vssd1 vccd1 vccd1 _222_/D sky130_fd_sc_hd__o21ba_1
XFILLER_21_85 vssd1 vssd1 vccd1 vccd1 sky130_fd_sc_hd__decap_12
XFILLER_21_41 vssd1 vssd1 vccd1 vccd1 sky130_fd_sc_hd__decap_3
XPHY_5 vssd1 vssd1 vccd1 vccd1 sky130_fd_sc_hd__decap_3
XFILLER_7_87 vssd1 vssd1 vccd1 vccd1 sky130_fd_sc_hd__fill_1
XFILLER_16_85 vssd1 vssd1 vccd1 vccd1 sky130_fd_sc_hd__decap_12
XFILLER_16_41 vssd1 vssd1 vccd1 vccd1 sky130_fd_sc_hd__decap_12
XFILLER_4_11 vssd1 vssd1 vccd1 vccd1 sky130_fd_sc_hd__decap_3
XFILLER_4_88 vssd1 vssd1 vccd1 vccd1 sky130_fd_sc_hd__decap_12
X_180_ ring_osc_counter_out[3] _181_/B vssd1 vssd1 vccd1 vccd1 _184_/C sky130_fd_sc_hd__and2_1
XFILLER_13_20 vssd1 vssd1 vccd1 vccd1 sky130_fd_sc_hd__decap_4
XFILLER_13_97 vssd1 vssd1 vccd1 vccd1 sky130_fd_sc_hd__decap_4
XFILLER_1_23 vssd1 vssd1 vccd1 vccd1 sky130_fd_sc_hd__decap_4
X_163_ _203_/A vssd1 vssd1 vccd1 vccd1 _163_/Y sky130_fd_sc_hd__inv_2
Xbuffers\[18\]._0_ buffers\[18\]._0_/A vssd1 vssd1 vccd1 vccd1 buffers\[19\]._0_/A
+ sky130_fd_sc_hd__inv_2
X_215_ _198_/Y _215_/D _158_/Y vssd1 vssd1 vccd1 vccd1 ring_osc_counter_out[4] sky130_fd_sc_hd__dfrtp_4
X_146_ _150_/B _150_/C _146_/C vssd1 vssd1 vccd1 vccd1 _146_/X sky130_fd_sc_hd__and3_1
XFILLER_21_97 vssd1 vssd1 vccd1 vccd1 sky130_fd_sc_hd__decap_12
XPHY_6 vssd1 vssd1 vccd1 vccd1 sky130_fd_sc_hd__decap_3
XFILLER_7_55 vssd1 vssd1 vccd1 vccd1 sky130_fd_sc_hd__fill_1
X_129_ counter_out[0] _166_/B _128_/B counter_out[1] vssd1 vssd1 vccd1 vccd1 _129_/X
+ sky130_fd_sc_hd__o22a_1
XFILLER_16_97 vssd1 vssd1 vccd1 vccd1 sky130_fd_sc_hd__decap_8
XFILLER_16_53 vssd1 vssd1 vccd1 vccd1 sky130_fd_sc_hd__decap_12
XFILLER_8_127 vssd1 vssd1 vccd1 vccd1 sky130_fd_sc_hd__decap_4
XFILLER_8_3 vssd1 vssd1 vccd1 vccd1 sky130_fd_sc_hd__decap_6
XFILLER_13_54 vssd1 vssd1 vccd1 vccd1 sky130_fd_sc_hd__fill_2
X_162_ _203_/A vssd1 vssd1 vccd1 vccd1 _162_/Y sky130_fd_sc_hd__inv_2
XTAP_90 vssd1 vccd1 sky130_fd_sc_hd__tapvpwrvgnd_1
Xinput1 b[0] vssd1 vssd1 vccd1 vccd1 input1/X sky130_fd_sc_hd__clkbuf_1
XFILLER_10_77 vssd1 vssd1 vccd1 vccd1 sky130_fd_sc_hd__decap_6
XFILLER_19_97 vssd1 vssd1 vccd1 vccd1 sky130_fd_sc_hd__decap_4
X_214_ _197_/Y _214_/D _159_/Y vssd1 vssd1 vccd1 vccd1 ring_osc_counter_out[3] sky130_fd_sc_hd__dfrtp_4
X_145_ counter_out[4] _144_/X _141_/B vssd1 vssd1 vccd1 vccd1 _223_/D sky130_fd_sc_hd__o21ba_1
XFILLER_21_21 vssd1 vssd1 vccd1 vccd1 sky130_fd_sc_hd__decap_6
XPHY_7 vssd1 vssd1 vccd1 vccd1 sky130_fd_sc_hd__decap_3
XFILLER_21_113 vssd1 vssd1 vccd1 vccd1 sky130_fd_sc_hd__decap_8
X_128_ counter_out[1] _128_/B vssd1 vssd1 vccd1 vccd1 _165_/B sky130_fd_sc_hd__and2_1
Xbuffers\[17\]._0_ buffers\[17\]._0_/A vssd1 vssd1 vccd1 vccd1 buffers\[18\]._0_/A
+ sky130_fd_sc_hd__inv_2
XFILLER_16_65 vssd1 vssd1 vccd1 vccd1 sky130_fd_sc_hd__decap_8
XFILLER_5_109 vssd1 vssd1 vccd1 vccd1 sky130_fd_sc_hd__decap_3
XFILLER_4_24 vssd1 vssd1 vccd1 vccd1 sky130_fd_sc_hd__decap_4
X_161_ _203_/A vssd1 vssd1 vccd1 vccd1 _161_/Y sky130_fd_sc_hd__inv_2
XTAP_91 vssd1 vccd1 sky130_fd_sc_hd__tapvpwrvgnd_1
Xinput2 bypass vssd1 vssd1 vccd1 vccd1 input2/X sky130_fd_sc_hd__dlymetal6s2s_1
XTAP_80 vssd1 vccd1 sky130_fd_sc_hd__tapvpwrvgnd_1
XFILLER_10_67 vssd1 vssd1 vccd1 vccd1 sky130_fd_sc_hd__decap_6
XFILLER_19_108 vssd1 vssd1 vccd1 vccd1 sky130_fd_sc_hd__decap_4
X_144_ _144_/A _150_/B _150_/C _146_/C vssd1 vssd1 vccd1 vccd1 _144_/X sky130_fd_sc_hd__and4_1
X_213_ _196_/Y _213_/D _161_/Y vssd1 vssd1 vccd1 vccd1 ring_osc_counter_out[2] sky130_fd_sc_hd__dfrtp_4
XFILLER_18_130 vssd1 vssd1 vccd1 vccd1 sky130_fd_sc_hd__fill_1
XFILLER_21_55 vssd1 vssd1 vccd1 vccd1 sky130_fd_sc_hd__fill_1
X_127_ _166_/B _127_/B vssd1 vssd1 vccd1 vccd1 _128_/B sky130_fd_sc_hd__xor2_1
XFILLER_16_3 vssd1 vssd1 vccd1 vccd1 sky130_fd_sc_hd__decap_12
XFILLER_15_111 vssd1 vssd1 vccd1 vccd1 sky130_fd_sc_hd__fill_1
XPHY_8 vssd1 vssd1 vccd1 vccd1 sky130_fd_sc_hd__decap_3
XFILLER_7_35 vssd1 vssd1 vccd1 vccd1 sky130_fd_sc_hd__decap_12
XFILLER_7_57 vssd1 vssd1 vccd1 vccd1 sky130_fd_sc_hd__decap_4
Xbuffers\[16\]._0_ buffers\[16\]._0_/A vssd1 vssd1 vccd1 vccd1 buffers\[17\]._0_/A
+ sky130_fd_sc_hd__inv_2
X_160_ _210_/A vssd1 vssd1 vccd1 vccd1 _203_/A sky130_fd_sc_hd__buf_2
Xinput3 counter_end[0] vssd1 vssd1 vccd1 vccd1 _121_/A sky130_fd_sc_hd__clkbuf_1
XTAP_81 vssd1 vccd1 sky130_fd_sc_hd__tapvpwrvgnd_1
XTAP_70 vssd1 vccd1 sky130_fd_sc_hd__tapvpwrvgnd_1
XFILLER_19_77 vssd1 vssd1 vccd1 vccd1 sky130_fd_sc_hd__fill_1
XFILLER_19_55 vssd1 vssd1 vccd1 vccd1 sky130_fd_sc_hd__fill_1
X_212_ _195_/Y _212_/D _162_/Y vssd1 vssd1 vccd1 vccd1 ring_osc_counter_out[1] sky130_fd_sc_hd__dfrtp_4
X_143_ _143_/A vssd1 vssd1 vccd1 vccd1 _150_/C sky130_fd_sc_hd__clkbuf_1
XFILLER_2_80 vssd1 vssd1 vccd1 vccd1 sky130_fd_sc_hd__decap_4
X_126_ counter_out[3] _123_/Y _125_/X vssd1 vssd1 vccd1 vccd1 _168_/B sky130_fd_sc_hd__a21oi_1
XFILLER_15_123 vssd1 vssd1 vccd1 vccd1 sky130_fd_sc_hd__fill_1
XPHY_9 vssd1 vssd1 vccd1 vccd1 sky130_fd_sc_hd__decap_3
XFILLER_7_47 vssd1 vssd1 vccd1 vccd1 sky130_fd_sc_hd__decap_8
XFILLER_7_69 vssd1 vssd1 vccd1 vccd1 sky130_fd_sc_hd__decap_6
X_109_ _112_/A _109_/B _109_/C vssd1 vssd1 vccd1 vccd1 _109_/X sky130_fd_sc_hd__or3_1
XFILLER_4_100 vssd1 vssd1 vccd1 vccd1 sky130_fd_sc_hd__fill_2
XFILLER_13_46 vssd1 vssd1 vccd1 vccd1 sky130_fd_sc_hd__decap_8
Xbuffers\[15\]._0_ buffers\[15\]._0_/A vssd1 vssd1 vccd1 vccd1 buffers\[16\]._0_/A
+ sky130_fd_sc_hd__inv_2
XFILLER_6_3 vssd1 vssd1 vccd1 vccd1 sky130_fd_sc_hd__fill_2
Xinput4 counter_end[1] vssd1 vssd1 vccd1 vccd1 _127_/B sky130_fd_sc_hd__clkbuf_2
XTAP_82 vssd1 vccd1 sky130_fd_sc_hd__tapvpwrvgnd_1
XTAP_60 vssd1 vccd1 sky130_fd_sc_hd__tapvpwrvgnd_1
XTAP_71 vssd1 vccd1 sky130_fd_sc_hd__tapvpwrvgnd_1
X_142_ _142_/A vssd1 vssd1 vccd1 vccd1 _150_/B sky130_fd_sc_hd__clkbuf_1
X_211_ _194_/Y _211_/D _163_/Y vssd1 vssd1 vccd1 vccd1 ring_osc_counter_out[0] sky130_fd_sc_hd__dfrtp_4
XFILLER_21_57 vssd1 vssd1 vccd1 vccd1 sky130_fd_sc_hd__decap_12
X_125_ counter_out[2] _125_/B _125_/C vssd1 vssd1 vccd1 vccd1 _125_/X sky130_fd_sc_hd__and3_1
XFILLER_21_127 vssd1 vssd1 vccd1 vccd1 sky130_fd_sc_hd__decap_4
XFILLER_16_79 vssd1 vssd1 vccd1 vccd1 sky130_fd_sc_hd__decap_4
XFILLER_7_120 vssd1 vssd1 vccd1 vccd1 sky130_fd_sc_hd__decap_8
X_108_ counter_out[6] _106_/B _107_/Y _106_/X counter_out[7] vssd1 vssd1 vccd1 vccd1
+ _164_/A sky130_fd_sc_hd__a32o_1
XFILLER_5_92 vssd1 vssd1 vccd1 vccd1 sky130_fd_sc_hd__decap_4
Xinput5 counter_end[2] vssd1 vssd1 vccd1 vccd1 _122_/C sky130_fd_sc_hd__dlymetal6s2s_1
XFILLER_1_39 vssd1 vssd1 vccd1 vccd1 sky130_fd_sc_hd__decap_4
XTAP_83 vssd1 vccd1 sky130_fd_sc_hd__tapvpwrvgnd_1
XTAP_50 vssd1 vccd1 sky130_fd_sc_hd__tapvpwrvgnd_1
XTAP_61 vssd1 vccd1 sky130_fd_sc_hd__tapvpwrvgnd_1
XFILLER_10_15 vssd1 vssd1 vccd1 vccd1 sky130_fd_sc_hd__decap_12
XFILLER_10_59 vssd1 vssd1 vccd1 vccd1 sky130_fd_sc_hd__decap_4
XTAP_72 vssd1 vccd1 sky130_fd_sc_hd__tapvpwrvgnd_1
X_210_ _210_/A vssd1 vssd1 vccd1 vccd1 _210_/Y sky130_fd_sc_hd__inv_2
X_141_ counter_out[5] _141_/B vssd1 vssd1 vccd1 vccd1 _224_/D sky130_fd_sc_hd__xor2_1
XFILLER_2_93 vssd1 vssd1 vccd1 vccd1 sky130_fd_sc_hd__fill_1
Xbuffers\[14\]._0_ buffers\[14\]._0_/A vssd1 vssd1 vccd1 vccd1 buffers\[15\]._0_/A
+ sky130_fd_sc_hd__inv_2
XFILLER_21_69 vssd1 vssd1 vccd1 vccd1 sky130_fd_sc_hd__decap_12
XFILLER_21_47 vssd1 vssd1 vccd1 vccd1 sky130_fd_sc_hd__decap_8
X_124_ _166_/B _127_/B _122_/C vssd1 vssd1 vccd1 vccd1 _125_/C sky130_fd_sc_hd__o21ai_1
XFILLER_12_117 vssd1 vssd1 vccd1 vccd1 sky130_fd_sc_hd__decap_12
X_107_ _112_/A _109_/B _109_/C _105_/C vssd1 vssd1 vccd1 vccd1 _107_/Y sky130_fd_sc_hd__o31ai_1
XFILLER_17_90 vssd1 vssd1 vccd1 vccd1 sky130_fd_sc_hd__decap_12
XFILLER_4_17 vssd1 vssd1 vccd1 vccd1 sky130_fd_sc_hd__decap_4
XFILLER_1_127 vssd1 vssd1 vccd1 vccd1 sky130_fd_sc_hd__decap_4
XFILLER_5_60 vssd1 vssd1 vccd1 vccd1 sky130_fd_sc_hd__decap_8
XFILLER_14_80 vssd1 vssd1 vccd1 vccd1 sky130_fd_sc_hd__decap_4
XTAP_84 vssd1 vccd1 sky130_fd_sc_hd__tapvpwrvgnd_1
XTAP_51 vssd1 vccd1 sky130_fd_sc_hd__tapvpwrvgnd_1
Xinput6 counter_end[3] vssd1 vssd1 vccd1 vccd1 _111_/D sky130_fd_sc_hd__dlymetal6s2s_1
XTAP_62 vssd1 vccd1 sky130_fd_sc_hd__tapvpwrvgnd_1
XFILLER_10_27 vssd1 vssd1 vccd1 vccd1 sky130_fd_sc_hd__fill_1
XTAP_73 vssd1 vccd1 sky130_fd_sc_hd__tapvpwrvgnd_1
XFILLER_18_112 vssd1 vssd1 vccd1 vccd1 sky130_fd_sc_hd__decap_12
XFILLER_18_101 vssd1 vssd1 vccd1 vccd1 sky130_fd_sc_hd__decap_4
X_140_ _142_/A _143_/A _140_/C vssd1 vssd1 vccd1 vccd1 _141_/B sky130_fd_sc_hd__and3_1
XFILLER_21_15 vssd1 vssd1 vccd1 vccd1 sky130_fd_sc_hd__fill_2
X_123_ _111_/D _125_/B _112_/B vssd1 vssd1 vccd1 vccd1 _123_/Y sky130_fd_sc_hd__a21oi_1
XFILLER_7_28 vssd1 vssd1 vccd1 vccd1 sky130_fd_sc_hd__decap_4
XFILLER_11_81 vssd1 vssd1 vccd1 vccd1 sky130_fd_sc_hd__decap_12
XFILLER_16_26 vssd1 vssd1 vccd1 vccd1 sky130_fd_sc_hd__fill_2
XFILLER_12_107 vssd1 vssd1 vccd1 vccd1 sky130_fd_sc_hd__decap_4
XFILLER_12_129 vssd1 vssd1 vccd1 vccd1 sky130_fd_sc_hd__fill_2
Xbuffers\[13\]._0_ buffers\[13\]._0_/A vssd1 vssd1 vccd1 vccd1 buffers\[14\]._0_/A
+ sky130_fd_sc_hd__inv_2
X_106_ _106_/A _106_/B vssd1 vssd1 vccd1 vccd1 _106_/X sky130_fd_sc_hd__xor2_2
XFILLER_8_82 vssd1 vssd1 vccd1 vccd1 sky130_fd_sc_hd__fill_2
XFILLER_4_125 vssd1 vssd1 vccd1 vccd1 sky130_fd_sc_hd__decap_6
XFILLER_13_27 vssd1 vssd1 vccd1 vccd1 sky130_fd_sc_hd__decap_12
XFILLER_1_19 vssd1 vssd1 vccd1 vccd1 sky130_fd_sc_hd__fill_1
XTAP_85 vssd1 vccd1 sky130_fd_sc_hd__tapvpwrvgnd_1
XTAP_52 vssd1 vccd1 sky130_fd_sc_hd__tapvpwrvgnd_1
XTAP_63 vssd1 vccd1 sky130_fd_sc_hd__tapvpwrvgnd_1
Xinput7 counter_end[4] vssd1 vssd1 vccd1 vccd1 _112_/A sky130_fd_sc_hd__clkbuf_2
XTAP_74 vssd1 vccd1 sky130_fd_sc_hd__tapvpwrvgnd_1
XFILLER_4_3 vssd1 vssd1 vccd1 vccd1 sky130_fd_sc_hd__decap_8
XFILLER_18_124 vssd1 vssd1 vccd1 vccd1 sky130_fd_sc_hd__decap_6
X_199_ _201_/A _201_/B vssd1 vssd1 vccd1 vccd1 _199_/Y sky130_fd_sc_hd__nand2_1
XFILLER_2_51 vssd1 vssd1 vccd1 vccd1 sky130_fd_sc_hd__decap_6
Xclkbuf_1_1_0_clk clkbuf_0_clk/X vssd1 vssd1 vccd1 vccd1 _224_/CLK sky130_fd_sc_hd__clkbuf_2
XFILLER_21_27 vssd1 vssd1 vccd1 vccd1 sky130_fd_sc_hd__fill_1
X_122_ _166_/B _127_/B _122_/C vssd1 vssd1 vccd1 vccd1 _125_/B sky130_fd_sc_hd__or3_1
XFILLER_15_127 vssd1 vssd1 vccd1 vccd1 sky130_fd_sc_hd__decap_4
XFILLER_11_93 vssd1 vssd1 vccd1 vccd1 sky130_fd_sc_hd__decap_3
Xinput10 counter_end[7] vssd1 vssd1 vccd1 vccd1 _106_/A sky130_fd_sc_hd__clkbuf_2
X_105_ _112_/A _109_/B _105_/C _109_/C vssd1 vssd1 vccd1 vccd1 _106_/B sky130_fd_sc_hd__or4_2
XFILLER_11_130 vssd1 vssd1 vccd1 vccd1 sky130_fd_sc_hd__fill_1
Xbuffers\[12\]._0_ buffers\[12\]._0_/A vssd1 vssd1 vccd1 vccd1 buffers\[13\]._0_/A
+ sky130_fd_sc_hd__inv_2
XFILLER_13_39 vssd1 vssd1 vccd1 vccd1 sky130_fd_sc_hd__fill_2
XFILLER_14_71 vssd1 vssd1 vccd1 vccd1 sky130_fd_sc_hd__fill_1
XTAP_86 vssd1 vccd1 sky130_fd_sc_hd__tapvpwrvgnd_1
Xinput8 counter_end[5] vssd1 vssd1 vccd1 vccd1 _109_/B sky130_fd_sc_hd__clkbuf_1
XTAP_53 vssd1 vccd1 sky130_fd_sc_hd__tapvpwrvgnd_1
XTAP_64 vssd1 vccd1 sky130_fd_sc_hd__tapvpwrvgnd_1
XTAP_75 vssd1 vccd1 sky130_fd_sc_hd__tapvpwrvgnd_1
XFILLER_19_49 vssd1 vssd1 vccd1 vccd1 sky130_fd_sc_hd__decap_6
X_198_ _198_/A _198_/B vssd1 vssd1 vccd1 vccd1 _198_/Y sky130_fd_sc_hd__nand2_1
X_121_ _121_/A vssd1 vssd1 vccd1 vccd1 _166_/B sky130_fd_sc_hd__clkbuf_2
XFILLER_21_109 vssd1 vssd1 vccd1 vccd1 sky130_fd_sc_hd__decap_3
Xinput11 extra_inverter vssd1 vssd1 vccd1 vccd1 _175_/A sky130_fd_sc_hd__clkbuf_1
XFILLER_21_7 vssd1 vssd1 vccd1 vccd1 sky130_fd_sc_hd__decap_8
X_104_ _121_/A _127_/B _122_/C _111_/D vssd1 vssd1 vccd1 vccd1 _109_/C sky130_fd_sc_hd__or4_1
Xclkbuf_1_0_0_clk clkbuf_0_clk/X vssd1 vssd1 vccd1 vccd1 _226_/CLK sky130_fd_sc_hd__clkbuf_2
XFILLER_14_6 vssd1 vssd1 vccd1 vccd1 sky130_fd_sc_hd__decap_6
XFILLER_8_95 vssd1 vssd1 vccd1 vccd1 sky130_fd_sc_hd__decap_8
XFILLER_17_82 vssd1 vssd1 vccd1 vccd1 sky130_fd_sc_hd__decap_4
XFILLER_1_108 vssd1 vssd1 vccd1 vccd1 sky130_fd_sc_hd__decap_4
XFILLER_12_3 vssd1 vssd1 vccd1 vccd1 sky130_fd_sc_hd__decap_6
XTAP_87 vssd1 vccd1 sky130_fd_sc_hd__tapvpwrvgnd_1
XTAP_76 vssd1 vccd1 sky130_fd_sc_hd__tapvpwrvgnd_1
XTAP_54 vssd1 vccd1 sky130_fd_sc_hd__tapvpwrvgnd_1
XTAP_65 vssd1 vccd1 sky130_fd_sc_hd__tapvpwrvgnd_1
Xinput9 counter_end[6] vssd1 vssd1 vccd1 vccd1 _105_/C sky130_fd_sc_hd__clkbuf_1
XFILLER_14_94 vssd1 vssd1 vccd1 vccd1 sky130_fd_sc_hd__decap_6
Xbuffers\[11\]._0_ buffers\[11\]._0_/A vssd1 vssd1 vccd1 vccd1 buffers\[12\]._0_/A
+ sky130_fd_sc_hd__inv_2
X_197_ _198_/A _198_/B vssd1 vssd1 vccd1 vccd1 _197_/Y sky130_fd_sc_hd__nand2_1
XFILLER_21_29 vssd1 vssd1 vccd1 vccd1 sky130_fd_sc_hd__decap_12
X_120_ counter_out[3] vssd1 vssd1 vccd1 vccd1 _144_/A sky130_fd_sc_hd__dlymetal6s2s_1
Xinput12 reset vssd1 vssd1 vccd1 vccd1 _210_/A sky130_fd_sc_hd__clkbuf_2
XFILLER_16_29 vssd1 vssd1 vccd1 vccd1 sky130_fd_sc_hd__decap_12
XFILLER_16_18 vssd1 vssd1 vccd1 vccd1 sky130_fd_sc_hd__decap_8
XFILLER_8_41 vssd1 vssd1 vccd1 vccd1 sky130_fd_sc_hd__decap_12