* NGSPICE file created from instrumented_adder.ext - technology: sky130A

* Black-box entry subcircuit for sky130_fd_sc_hd__fill_1 abstract view
.subckt sky130_fd_sc_hd__fill_1 VGND VNB VPB VPWR
.ends

* Black-box entry subcircuit for sky130_fd_sc_hd__decap_8 abstract view
.subckt sky130_fd_sc_hd__decap_8 VGND VNB VPB VPWR
.ends

* Black-box entry subcircuit for sky130_fd_sc_hd__decap_4 abstract view
.subckt sky130_fd_sc_hd__decap_4 VGND VNB VPB VPWR
.ends

* Black-box entry subcircuit for sky130_fd_sc_hd__mux2_1 abstract view
.subckt sky130_fd_sc_hd__mux2_1 A0 A1 S VGND VNB VPB VPWR X
.ends

* Black-box entry subcircuit for sky130_fd_sc_hd__inv_2 abstract view
.subckt sky130_fd_sc_hd__inv_2 A VGND VNB VPB VPWR Y
.ends

* Black-box entry subcircuit for sky130_fd_sc_hd__fill_2 abstract view
.subckt sky130_fd_sc_hd__fill_2 VGND VNB VPB VPWR
.ends

* Black-box entry subcircuit for sky130_fd_sc_hd__decap_12 abstract view
.subckt sky130_fd_sc_hd__decap_12 VGND VNB VPB VPWR
.ends

* Black-box entry subcircuit for sky130_fd_sc_hd__tapvpwrvgnd_1 abstract view
.subckt sky130_fd_sc_hd__tapvpwrvgnd_1 VGND VPWR
.ends

* Black-box entry subcircuit for sky130_fd_sc_hd__buf_2 abstract view
.subckt sky130_fd_sc_hd__buf_2 A VGND VNB VPB VPWR X
.ends

* Black-box entry subcircuit for sky130_fd_sc_hd__dfrtp_2 abstract view
.subckt sky130_fd_sc_hd__dfrtp_2 CLK D RESET_B VGND VNB VPB VPWR Q
.ends

* Black-box entry subcircuit for sky130_fd_sc_hd__decap_6 abstract view
.subckt sky130_fd_sc_hd__decap_6 VGND VNB VPB VPWR
.ends

* Black-box entry subcircuit for sky130_fd_sc_hd__dfrtp_1 abstract view
.subckt sky130_fd_sc_hd__dfrtp_1 CLK D RESET_B VGND VNB VPB VPWR Q
.ends

* Black-box entry subcircuit for sky130_fd_sc_hd__o31a_1 abstract view
.subckt sky130_fd_sc_hd__o31a_1 A1 A2 A3 B1 VGND VNB VPB VPWR X
.ends

* Black-box entry subcircuit for sky130_fd_sc_hd__xnor2_2 abstract view
.subckt sky130_fd_sc_hd__xnor2_2 A B VGND VNB VPB VPWR Y
.ends

* Black-box entry subcircuit for sky130_fd_sc_hd__nor2_1 abstract view
.subckt sky130_fd_sc_hd__nor2_1 A B VGND VNB VPB VPWR Y
.ends

* Black-box entry subcircuit for sky130_fd_sc_hd__ebufn_2 abstract view
.subckt sky130_fd_sc_hd__ebufn_2 A TE_B VGND VNB VPB VPWR Z
.ends

* Black-box entry subcircuit for sky130_fd_sc_hd__a211oi_1 abstract view
.subckt sky130_fd_sc_hd__a211oi_1 A1 A2 B1 C1 VGND VNB VPB VPWR Y
.ends

* Black-box entry subcircuit for sky130_fd_sc_hd__decap_3 abstract view
.subckt sky130_fd_sc_hd__decap_3 VGND VNB VPB VPWR
.ends

* Black-box entry subcircuit for sky130_fd_sc_hd__nand2_1 abstract view
.subckt sky130_fd_sc_hd__nand2_1 A B VGND VNB VPB VPWR Y
.ends

* Black-box entry subcircuit for sky130_fd_sc_hd__and2_1 abstract view
.subckt sky130_fd_sc_hd__and2_1 A B VGND VNB VPB VPWR X
.ends

* Black-box entry subcircuit for sky130_fd_sc_hd__ebufn_8 abstract view
.subckt sky130_fd_sc_hd__ebufn_8 A TE_B VGND VNB VPB VPWR Z
.ends

* Black-box entry subcircuit for sky130_fd_sc_hd__or2_1 abstract view
.subckt sky130_fd_sc_hd__or2_1 A B VGND VNB VPB VPWR X
.ends

* Black-box entry subcircuit for sky130_fd_sc_hd__clkbuf_16 abstract view
.subckt sky130_fd_sc_hd__clkbuf_16 A VGND VNB VPB VPWR X
.ends

* Black-box entry subcircuit for sky130_fd_sc_hd__xor2_2 abstract view
.subckt sky130_fd_sc_hd__xor2_2 A B VGND VNB VPB VPWR X
.ends

* Black-box entry subcircuit for sky130_fd_sc_hd__and3_1 abstract view
.subckt sky130_fd_sc_hd__and3_1 A B C VGND VNB VPB VPWR X
.ends

* Black-box entry subcircuit for sky130_fd_sc_hd__ebufn_1 abstract view
.subckt sky130_fd_sc_hd__ebufn_1 A TE_B VGND VNB VPB VPWR Z
.ends

* Black-box entry subcircuit for sky130_fd_sc_hd__o311a_1 abstract view
.subckt sky130_fd_sc_hd__o311a_1 A1 A2 A3 B1 C1 VGND VNB VPB VPWR X
.ends

* Black-box entry subcircuit for sky130_fd_sc_hd__o2111a_2 abstract view
.subckt sky130_fd_sc_hd__o2111a_2 A1 A2 B1 C1 D1 VGND VNB VPB VPWR X
.ends

* Black-box entry subcircuit for sky130_fd_sc_hd__xor2_1 abstract view
.subckt sky130_fd_sc_hd__xor2_1 A B VGND VNB VPB VPWR X
.ends

* Black-box entry subcircuit for sky130_fd_sc_hd__o21ai_1 abstract view
.subckt sky130_fd_sc_hd__o21ai_1 A1 A2 B1 VGND VNB VPB VPWR Y
.ends

* Black-box entry subcircuit for sky130_fd_sc_hd__a21oi_1 abstract view
.subckt sky130_fd_sc_hd__a21oi_1 A1 A2 B1 VGND VNB VPB VPWR Y
.ends

* Black-box entry subcircuit for sky130_fd_sc_hd__clkbuf_1 abstract view
.subckt sky130_fd_sc_hd__clkbuf_1 A VGND VNB VPB VPWR X
.ends

* Black-box entry subcircuit for sky130_fd_sc_hd__ebufn_4 abstract view
.subckt sky130_fd_sc_hd__ebufn_4 A TE_B VGND VNB VPB VPWR Z
.ends

* Black-box entry subcircuit for sky130_fd_sc_hd__nor2_4 abstract view
.subckt sky130_fd_sc_hd__nor2_4 A B VGND VNB VPB VPWR Y
.ends

* Black-box entry subcircuit for sky130_fd_sc_hd__xnor2_1 abstract view
.subckt sky130_fd_sc_hd__xnor2_1 A B VGND VNB VPB VPWR Y
.ends

* Black-box entry subcircuit for sky130_fd_sc_hd__o21a_1 abstract view
.subckt sky130_fd_sc_hd__o21a_1 A1 A2 B1 VGND VNB VPB VPWR X
.ends

* Black-box entry subcircuit for sky130_fd_sc_hd__a31o_2 abstract view
.subckt sky130_fd_sc_hd__a31o_2 A1 A2 A3 B1 VGND VNB VPB VPWR X
.ends

* Black-box entry subcircuit for sky130_fd_sc_hd__clkbuf_2 abstract view
.subckt sky130_fd_sc_hd__clkbuf_2 A VGND VNB VPB VPWR X
.ends

* Black-box entry subcircuit for sky130_fd_sc_hd__or4_1 abstract view
.subckt sky130_fd_sc_hd__or4_1 A B C D VGND VNB VPB VPWR X
.ends

* Black-box entry subcircuit for sky130_fd_sc_hd__or4_2 abstract view
.subckt sky130_fd_sc_hd__or4_2 A B C D VGND VNB VPB VPWR X
.ends

* Black-box entry subcircuit for sky130_fd_sc_hd__dlymetal6s2s_1 abstract view
.subckt sky130_fd_sc_hd__dlymetal6s2s_1 A VGND VNB VPB VPWR X
.ends

* Black-box entry subcircuit for sky130_fd_sc_hd__nor2_2 abstract view
.subckt sky130_fd_sc_hd__nor2_2 A B VGND VNB VPB VPWR Y
.ends

* Black-box entry subcircuit for sky130_fd_sc_hd__a21o_1 abstract view
.subckt sky130_fd_sc_hd__a21o_1 A1 A2 B1 VGND VNB VPB VPWR X
.ends

* Black-box entry subcircuit for sky130_fd_sc_hd__dfrtp_4 abstract view
.subckt sky130_fd_sc_hd__dfrtp_4 CLK D RESET_B VGND VNB VPB VPWR Q
.ends

* Black-box entry subcircuit for sky130_fd_sc_hd__o21ba_1 abstract view
.subckt sky130_fd_sc_hd__o21ba_1 A1 A2 B1_N VGND VNB VPB VPWR X
.ends

* Black-box entry subcircuit for sky130_fd_sc_hd__or3_1 abstract view
.subckt sky130_fd_sc_hd__or3_1 A B C VGND VNB VPB VPWR X
.ends

* Black-box entry subcircuit for sky130_fd_sc_hd__o211a_1 abstract view
.subckt sky130_fd_sc_hd__o211a_1 A1 A2 B1 C1 VGND VNB VPB VPWR X
.ends

* Black-box entry subcircuit for sky130_fd_sc_hd__a311o_2 abstract view
.subckt sky130_fd_sc_hd__a311o_2 A1 A2 A3 B1 C1 VGND VNB VPB VPWR X
.ends

* Black-box entry subcircuit for sky130_fd_sc_hd__clkinv_2 abstract view
.subckt sky130_fd_sc_hd__clkinv_2 A VGND VNB VPB VPWR Y
.ends

* Black-box entry subcircuit for sky130_fd_sc_hd__nand2_4 abstract view
.subckt sky130_fd_sc_hd__nand2_4 A B VGND VNB VPB VPWR Y
.ends

.subckt instrumented_adder a_input[0] a_input[1] a_input[2] a_input[3] a_input[4]
+ a_input[5] a_input[6] a_input[7] a_input_ext_bit_b[0] a_input_ext_bit_b[1] a_input_ext_bit_b[2]
+ a_input_ext_bit_b[3] a_input_ext_bit_b[4] a_input_ext_bit_b[5] a_input_ext_bit_b[6]
+ a_input_ext_bit_b[7] a_input_ring_bit_b[0] a_input_ring_bit_b[1] a_input_ring_bit_b[2]
+ a_input_ring_bit_b[3] a_input_ring_bit_b[4] a_input_ring_bit_b[5] a_input_ring_bit_b[6]
+ a_input_ring_bit_b[7] b_input[0] b_input[1] b_input[2] b_input[3] b_input[4] b_input[5]
+ b_input[6] b_input[7] bypass_b clk control_b counter_enable counter_load done extra_inverter
+ integration_time[0] integration_time[1] integration_time[2] integration_time[3]
+ integration_time[4] integration_time[5] integration_time[6] integration_time[7]
+ reset ring_osc_counter_out[0] ring_osc_counter_out[1] ring_osc_counter_out[2] ring_osc_counter_out[3]
+ ring_osc_counter_out[4] ring_osc_counter_out[5] ring_osc_counter_out[6] ring_osc_counter_out[7]
+ ring_osc_out s_output_bit_b[0] s_output_bit_b[1] s_output_bit_b[2] s_output_bit_b[3]
+ s_output_bit_b[4] s_output_bit_b[5] s_output_bit_b[6] s_output_bit_b[7] stop_b sum_out[0]
+ sum_out[1] sum_out[2] sum_out[3] sum_out[4] sum_out[5] sum_out[6] sum_out[7] vccd1
+ vssd1
XFILLER_13_155 vssd1 vssd1 vccd1 vccd1 sky130_fd_sc_hd__fill_1
XFILLER_13_133 vssd1 vssd1 vccd1 vccd1 sky130_fd_sc_hd__decap_8
XFILLER_13_122 vssd1 vssd1 vccd1 vccd1 sky130_fd_sc_hd__decap_4
XFILLER_3_45 vssd1 vssd1 vccd1 vccd1 sky130_fd_sc_hd__decap_4
XFILLER_6_129 vssd1 vssd1 vccd1 vccd1 sky130_fd_sc_hd__decap_4
X_131_ _130_/X _256_/Q _146_/S vssd1 vssd1 vccd1 vccd1 _132_/A sky130_fd_sc_hd__mux2_1
X_200_ _235_/A vssd1 vssd1 vccd1 vccd1 _200_/Y sky130_fd_sc_hd__inv_2
XFILLER_2_132 vssd1 vssd1 vccd1 vccd1 sky130_fd_sc_hd__fill_1
XFILLER_0_57 vssd1 vssd1 vccd1 vccd1 sky130_fd_sc_hd__fill_2
XFILLER_0_24 vssd1 vssd1 vccd1 vccd1 sky130_fd_sc_hd__decap_4
XFILLER_18_53 vssd1 vssd1 vccd1 vccd1 sky130_fd_sc_hd__decap_8
XFILLER_18_20 vssd1 vssd1 vccd1 vccd1 sky130_fd_sc_hd__decap_8
XFILLER_20_32 vssd1 vssd1 vccd1 vccd1 sky130_fd_sc_hd__decap_4
XFILLER_20_10 vssd1 vssd1 vccd1 vccd1 sky130_fd_sc_hd__fill_1
XFILLER_6_45 vssd1 vssd1 vccd1 vccd1 sky130_fd_sc_hd__decap_12
XFILLER_15_43 vssd1 vssd1 vccd1 vccd1 sky130_fd_sc_hd__decap_4
Xinverters\[4\]._0_ inverters\[4\]._0_/A vssd1 vssd1 vccd1 vccd1 inverters\[5\]._0_/A
+ sky130_fd_sc_hd__inv_2
XTAP_112 vssd1 vccd1 sky130_fd_sc_hd__tapvpwrvgnd_1
XTAP_101 vssd1 vccd1 sky130_fd_sc_hd__tapvpwrvgnd_1
XFILLER_3_57 vssd1 vssd1 vccd1 vccd1 sky130_fd_sc_hd__decap_4
XFILLER_6_108 vssd1 vssd1 vccd1 vccd1 sky130_fd_sc_hd__decap_4
X_276_ _276_/A vssd1 vssd1 vccd1 vccd1 sum_out[7] sky130_fd_sc_hd__buf_2
XFILLER_5_152 vssd1 vssd1 vccd1 vccd1 sky130_fd_sc_hd__decap_4
XFILLER_23_43 vssd1 vssd1 vccd1 vccd1 sky130_fd_sc_hd__fill_1
X_130_ _129_/Y _130_/A1 _141_/S vssd1 vssd1 vccd1 vccd1 _130_/X sky130_fd_sc_hd__mux2_1
X_259_ _259_/CLK _259_/D _200_/Y vssd1 vssd1 vccd1 vccd1 _259_/Q sky130_fd_sc_hd__dfrtp_2
XFILLER_20_22 vssd1 vssd1 vccd1 vccd1 sky130_fd_sc_hd__decap_6
XFILLER_6_57 vssd1 vssd1 vccd1 vccd1 sky130_fd_sc_hd__decap_8
XFILLER_15_11 vssd1 vssd1 vccd1 vccd1 sky130_fd_sc_hd__fill_1
XTAP_113 vssd1 vccd1 sky130_fd_sc_hd__tapvpwrvgnd_1
XTAP_102 vssd1 vccd1 sky130_fd_sc_hd__tapvpwrvgnd_1
XFILLER_8_150 vssd1 vssd1 vccd1 vccd1 sky130_fd_sc_hd__decap_6
Xinverters\[3\]._0_ inverters\[3\]._0_/A vssd1 vssd1 vccd1 vccd1 inverters\[4\]._0_/A
+ sky130_fd_sc_hd__inv_2
XFILLER_5_6 vssd1 vssd1 vccd1 vccd1 sky130_fd_sc_hd__decap_4
XFILLER_12_34 vssd1 vssd1 vccd1 vccd1 sky130_fd_sc_hd__decap_4
X_275_ _275_/A vssd1 vssd1 vccd1 vccd1 sum_out[6] sky130_fd_sc_hd__buf_2
XFILLER_0_48 vssd1 vssd1 vccd1 vccd1 sky130_fd_sc_hd__decap_8
XFILLER_3_3 vssd1 vssd1 vccd1 vccd1 sky130_fd_sc_hd__decap_6
X_258_ _258_/CLK _258_/D _199_/Y vssd1 vssd1 vccd1 vccd1 _258_/Q sky130_fd_sc_hd__dfrtp_1
X_189_ _187_/A _188_/A _187_/B _185_/A vssd1 vssd1 vccd1 vccd1 _191_/A sky130_fd_sc_hd__o31a_1
XFILLER_9_46 vssd1 vssd1 vccd1 vccd1 sky130_fd_sc_hd__decap_8
XFILLER_9_68 vssd1 vssd1 vccd1 vccd1 sky130_fd_sc_hd__fill_1
XFILLER_18_88 vssd1 vssd1 vccd1 vccd1 sky130_fd_sc_hd__decap_6
XFILLER_18_77 vssd1 vssd1 vccd1 vccd1 sky130_fd_sc_hd__decap_6
XFILLER_22_9 vssd1 vssd1 vccd1 vccd1 sky130_fd_sc_hd__fill_1
XFILLER_20_89 vssd1 vssd1 vccd1 vccd1 sky130_fd_sc_hd__decap_6
XFILLER_20_6 vssd1 vssd1 vccd1 vccd1 sky130_fd_sc_hd__decap_4
XFILLER_25_122 vssd1 vssd1 vccd1 vccd1 sky130_fd_sc_hd__decap_4
XTAP_114 vssd1 vccd1 sky130_fd_sc_hd__tapvpwrvgnd_1
XFILLER_22_136 vssd1 vssd1 vccd1 vccd1 sky130_fd_sc_hd__decap_4
XTAP_103 vssd1 vccd1 sky130_fd_sc_hd__tapvpwrvgnd_1
XFILLER_13_147 vssd1 vssd1 vccd1 vccd1 sky130_fd_sc_hd__decap_8
XFILLER_10_139 vssd1 vssd1 vccd1 vccd1 sky130_fd_sc_hd__fill_1
X_274_ _274_/A vssd1 vssd1 vccd1 vccd1 sum_out[5] sky130_fd_sc_hd__buf_2
XFILLER_23_89 vssd1 vssd1 vccd1 vccd1 sky130_fd_sc_hd__fill_2
X_257_ _258_/CLK _257_/D _198_/Y vssd1 vssd1 vccd1 vccd1 _257_/Q sky130_fd_sc_hd__dfrtp_1
Xinverters\[2\]._0_ inverters\[2\]._0_/A vssd1 vssd1 vccd1 vccd1 inverters\[3\]._0_/A
+ sky130_fd_sc_hd__inv_2
X_188_ _188_/A _188_/B vssd1 vssd1 vccd1 vccd1 _275_/A sky130_fd_sc_hd__xnor2_2
XFILLER_1_70 vssd1 vssd1 vccd1 vccd1 sky130_fd_sc_hd__decap_4
XFILLER_25_101 vssd1 vssd1 vccd1 vccd1 sky130_fd_sc_hd__decap_4
XFILLER_15_35 vssd1 vssd1 vccd1 vccd1 sky130_fd_sc_hd__decap_4
XTAP_115 vssd1 vccd1 sky130_fd_sc_hd__tapvpwrvgnd_1
XTAP_104 vssd1 vccd1 sky130_fd_sc_hd__tapvpwrvgnd_1
XFILLER_11_3 vssd1 vssd1 vccd1 vccd1 sky130_fd_sc_hd__decap_6
XFILLER_22_115 vssd1 vssd1 vccd1 vccd1 sky130_fd_sc_hd__fill_1
XFILLER_7_91 vssd1 vssd1 vccd1 vccd1 sky130_fd_sc_hd__decap_12
XFILLER_9_108 vssd1 vssd1 vccd1 vccd1 sky130_fd_sc_hd__decap_4
X_273_ _273_/A vssd1 vssd1 vccd1 vccd1 sum_out[4] sky130_fd_sc_hd__buf_2
XFILLER_23_35 vssd1 vssd1 vccd1 vccd1 sky130_fd_sc_hd__fill_1
XFILLER_2_136 vssd1 vssd1 vccd1 vccd1 sky130_fd_sc_hd__decap_4
X_256_ _258_/CLK _256_/D _197_/Y vssd1 vssd1 vccd1 vccd1 _256_/Q sky130_fd_sc_hd__dfrtp_1
X_187_ _187_/A _187_/B vssd1 vssd1 vccd1 vccd1 _188_/B sky130_fd_sc_hd__nor2_1
XFILLER_9_37 vssd1 vssd1 vccd1 vccd1 sky130_fd_sc_hd__decap_4
X_239_ _242_/A vssd1 vssd1 vccd1 vccd1 _239_/Y sky130_fd_sc_hd__inv_2
XFILLER_20_14 vssd1 vssd1 vccd1 vccd1 sky130_fd_sc_hd__decap_4
Xinverters\[1\]._0_ inverters\[1\]._0_/A vssd1 vssd1 vccd1 vccd1 inverters\[2\]._0_/A
+ sky130_fd_sc_hd__inv_2
Xinverters\[19\]._0_ inverters\[19\]._0_/A vssd1 vssd1 vccd1 vccd1 inverters\[20\]._0_/A
+ sky130_fd_sc_hd__inv_2
XFILLER_19_132 vssd1 vssd1 vccd1 vccd1 sky130_fd_sc_hd__decap_4
XFILLER_19_121 vssd1 vssd1 vccd1 vccd1 sky130_fd_sc_hd__fill_1
XFILLER_13_7 vssd1 vssd1 vccd1 vccd1 sky130_fd_sc_hd__decap_4
XFILLER_6_27 vssd1 vssd1 vccd1 vccd1 sky130_fd_sc_hd__fill_1
XFILLER_25_113 vssd1 vssd1 vccd1 vccd1 sky130_fd_sc_hd__decap_6
Xtristate_ring_inputs\[7\]._0_ _153_/Y input24/X vssd1 vssd1 vccd1 vccd1 _190_/A sky130_fd_sc_hd__ebufn_2
XFILLER_15_47 vssd1 vssd1 vccd1 vccd1 sky130_fd_sc_hd__fill_1
XTAP_116 vssd1 vccd1 sky130_fd_sc_hd__tapvpwrvgnd_1
XTAP_105 vssd1 vccd1 sky130_fd_sc_hd__tapvpwrvgnd_1
XFILLER_16_124 vssd1 vssd1 vccd1 vccd1 sky130_fd_sc_hd__fill_1
X_272_ _272_/A vssd1 vssd1 vccd1 vccd1 sum_out[3] sky130_fd_sc_hd__buf_2
XFILLER_12_48 vssd1 vssd1 vccd1 vccd1 sky130_fd_sc_hd__decap_12
XFILLER_5_101 vssd1 vssd1 vccd1 vccd1 sky130_fd_sc_hd__decap_4
X_255_ _259_/CLK _255_/D _196_/Y vssd1 vssd1 vccd1 vccd1 _255_/Q sky130_fd_sc_hd__dfrtp_1
XFILLER_2_115 vssd1 vssd1 vccd1 vccd1 sky130_fd_sc_hd__decap_4
X_186_ _177_/A _177_/B _180_/B _174_/B vssd1 vssd1 vccd1 vccd1 _187_/B sky130_fd_sc_hd__a211oi_1
X_238_ _238_/A _238_/B vssd1 vssd1 vccd1 vccd1 _262_/D sky130_fd_sc_hd__nor2_1
X_169_ _169_/A _169_/B vssd1 vssd1 vccd1 vccd1 _171_/A sky130_fd_sc_hd__nor2_1
XFILLER_19_155 vssd1 vssd1 vccd1 vccd1 sky130_fd_sc_hd__fill_1
XFILLER_19_111 vssd1 vssd1 vccd1 vccd1 sky130_fd_sc_hd__fill_1
XFILLER_19_100 vssd1 vssd1 vccd1 vccd1 sky130_fd_sc_hd__fill_1
XFILLER_10_70 vssd1 vssd1 vccd1 vccd1 sky130_fd_sc_hd__fill_2
XFILLER_25_136 vssd1 vssd1 vccd1 vccd1 sky130_fd_sc_hd__decap_4
XFILLER_16_136 vssd1 vssd1 vccd1 vccd1 sky130_fd_sc_hd__decap_4
XTAP_117 vssd1 vccd1 sky130_fd_sc_hd__tapvpwrvgnd_1
XTAP_106 vssd1 vccd1 sky130_fd_sc_hd__tapvpwrvgnd_1
Xinverters\[0\]._0_ _154_/X vssd1 vssd1 vccd1 vccd1 inverters\[1\]._0_/A sky130_fd_sc_hd__inv_2
Xinverters\[18\]._0_ inverters\[18\]._0_/A vssd1 vssd1 vccd1 vccd1 inverters\[19\]._0_/A
+ sky130_fd_sc_hd__inv_2
XPHY_0 vssd1 vssd1 vccd1 vccd1 sky130_fd_sc_hd__decap_3
XFILLER_13_106 vssd1 vssd1 vccd1 vccd1 sky130_fd_sc_hd__decap_6
XFILLER_3_18 vssd1 vssd1 vccd1 vccd1 sky130_fd_sc_hd__decap_4
XFILLER_12_150 vssd1 vssd1 vccd1 vccd1 sky130_fd_sc_hd__decap_6
Xtristate_ring_inputs\[6\]._0_ _153_/Y input23/X vssd1 vssd1 vccd1 vccd1 _184_/A sky130_fd_sc_hd__ebufn_2
XFILLER_8_132 vssd1 vssd1 vccd1 vccd1 sky130_fd_sc_hd__fill_1
X_271_ _271_/A vssd1 vssd1 vccd1 vccd1 sum_out[2] sky130_fd_sc_hd__buf_2
XFILLER_5_124 vssd1 vssd1 vccd1 vccd1 sky130_fd_sc_hd__fill_1
XFILLER_5_135 vssd1 vssd1 vccd1 vccd1 sky130_fd_sc_hd__decap_4
XFILLER_4_83 vssd1 vssd1 vccd1 vccd1 sky130_fd_sc_hd__fill_1
X_254_ _259_/CLK _254_/D _195_/Y vssd1 vssd1 vccd1 vccd1 _254_/Q sky130_fd_sc_hd__dfrtp_1
X_185_ _185_/A _185_/B vssd1 vssd1 vccd1 vccd1 _188_/A sky130_fd_sc_hd__nand2_1
XFILLER_18_15 vssd1 vssd1 vccd1 vccd1 sky130_fd_sc_hd__fill_1
XFILLER_24_91 vssd1 vssd1 vccd1 vccd1 sky130_fd_sc_hd__decap_8
X_237_ ring_osc_counter_out[2] _237_/B vssd1 vssd1 vccd1 vccd1 _238_/B sky130_fd_sc_hd__nor2_1
X_168_ _168_/A _168_/B vssd1 vssd1 vccd1 vccd1 _169_/B sky130_fd_sc_hd__and2_1
XFILLER_1_95 vssd1 vssd1 vccd1 vccd1 sky130_fd_sc_hd__decap_4
Xtristate_sum_outputs\[7\]._0_ _276_/A input54/X vssd1 vssd1 vccd1 vccd1 ring_osc_out
+ sky130_fd_sc_hd__ebufn_8
XTAP_118 vssd1 vccd1 sky130_fd_sc_hd__tapvpwrvgnd_1
XTAP_107 vssd1 vccd1 sky130_fd_sc_hd__tapvpwrvgnd_1
XPHY_1 vssd1 vssd1 vccd1 vccd1 sky130_fd_sc_hd__decap_3
X_270_ _270_/A vssd1 vssd1 vccd1 vccd1 sum_out[1] sky130_fd_sc_hd__buf_2
Xinverters\[17\]._0_ inverters\[17\]._0_/A vssd1 vssd1 vccd1 vccd1 inverters\[18\]._0_/A
+ sky130_fd_sc_hd__inv_2
XFILLER_23_27 vssd1 vssd1 vccd1 vccd1 sky130_fd_sc_hd__decap_8
Xtristate_ring_inputs\[5\]._0_ _153_/Y input22/X vssd1 vssd1 vccd1 vccd1 _179_/A sky130_fd_sc_hd__ebufn_2
XFILLER_2_128 vssd1 vssd1 vccd1 vccd1 sky130_fd_sc_hd__decap_4
XFILLER_9_18 vssd1 vssd1 vccd1 vccd1 sky130_fd_sc_hd__decap_12
XFILLER_13_93 vssd1 vssd1 vccd1 vccd1 sky130_fd_sc_hd__decap_4
X_253_ _259_/CLK _253_/D _193_/Y vssd1 vssd1 vccd1 vccd1 _253_/Q sky130_fd_sc_hd__dfrtp_1
X_184_ _184_/A _184_/B vssd1 vssd1 vccd1 vccd1 _185_/B sky130_fd_sc_hd__or2_1
X_236_ _242_/A vssd1 vssd1 vccd1 vccd1 _236_/Y sky130_fd_sc_hd__inv_2
X_167_ _168_/A _168_/B vssd1 vssd1 vccd1 vccd1 _169_/A sky130_fd_sc_hd__nor2_1
XFILLER_20_39 vssd1 vssd1 vccd1 vccd1 sky130_fd_sc_hd__decap_4
XFILLER_19_113 vssd1 vssd1 vccd1 vccd1 sky130_fd_sc_hd__decap_8
XFILLER_6_19 vssd1 vssd1 vccd1 vccd1 sky130_fd_sc_hd__decap_8
XFILLER_19_70 vssd1 vssd1 vccd1 vccd1 sky130_fd_sc_hd__decap_4
X_219_ ring_osc_counter_out[6] _227_/A vssd1 vssd1 vccd1 vccd1 _223_/A sky130_fd_sc_hd__nand2_1
XFILLER_16_116 vssd1 vssd1 vccd1 vccd1 sky130_fd_sc_hd__decap_8
XTAP_119 vssd1 vccd1 sky130_fd_sc_hd__tapvpwrvgnd_1
XTAP_108 vssd1 vccd1 sky130_fd_sc_hd__tapvpwrvgnd_1
Xclkbuf_0_clk clk vssd1 vssd1 vccd1 vccd1 clkbuf_0_clk/X sky130_fd_sc_hd__clkbuf_16
XPHY_2 vssd1 vssd1 vccd1 vccd1 sky130_fd_sc_hd__decap_3
Xtristate_sum_outputs\[6\]._0_ _275_/A input53/X vssd1 vssd1 vccd1 vccd1 ring_osc_out
+ sky130_fd_sc_hd__ebufn_8
XFILLER_23_39 vssd1 vssd1 vccd1 vccd1 sky130_fd_sc_hd__decap_4
XFILLER_2_107 vssd1 vssd1 vccd1 vccd1 sky130_fd_sc_hd__decap_4
X_252_ _258_/CLK _252_/D _192_/Y vssd1 vssd1 vccd1 vccd1 _252_/Q sky130_fd_sc_hd__dfrtp_2
X_183_ _184_/A _184_/B vssd1 vssd1 vccd1 vccd1 _185_/A sky130_fd_sc_hd__nand2_1
XFILLER_24_60 vssd1 vssd1 vccd1 vccd1 sky130_fd_sc_hd__decap_12
X_235_ _235_/A vssd1 vssd1 vccd1 vccd1 _242_/A sky130_fd_sc_hd__buf_2
XFILLER_1_6 vssd1 vssd1 vccd1 vccd1 sky130_fd_sc_hd__decap_4
Xinverters\[16\]._0_ inverters\[16\]._0_/A vssd1 vssd1 vccd1 vccd1 inverters\[17\]._0_/A
+ sky130_fd_sc_hd__inv_2
XFILLER_1_31 vssd1 vssd1 vccd1 vccd1 sky130_fd_sc_hd__decap_4
X_166_ _166_/A _166_/B vssd1 vssd1 vccd1 vccd1 _271_/A sky130_fd_sc_hd__xor2_2
Xtristate_ring_inputs\[4\]._0_ _153_/Y input21/X vssd1 vssd1 vccd1 vccd1 _173_/A sky130_fd_sc_hd__ebufn_2
XFILLER_10_62 vssd1 vssd1 vccd1 vccd1 sky130_fd_sc_hd__decap_8
XFILLER_19_147 vssd1 vssd1 vccd1 vccd1 sky130_fd_sc_hd__decap_8
XFILLER_19_125 vssd1 vssd1 vccd1 vccd1 sky130_fd_sc_hd__decap_4
XFILLER_19_82 vssd1 vssd1 vccd1 vccd1 sky130_fd_sc_hd__decap_12
X_149_ _148_/X _149_/A1 _246_/A vssd1 vssd1 vccd1 vccd1 _150_/A sky130_fd_sc_hd__mux2_1
X_218_ ring_osc_counter_out[5] ring_osc_counter_out[4] _234_/A vssd1 vssd1 vccd1 vccd1
+ _227_/A sky130_fd_sc_hd__and3_1
Xbypass1._0_ _153_/Y input33/X vssd1 vssd1 vccd1 vccd1 bypass2._0_/A sky130_fd_sc_hd__ebufn_1
XTAP_109 vssd1 vccd1 sky130_fd_sc_hd__tapvpwrvgnd_1
XFILLER_16_128 vssd1 vssd1 vccd1 vccd1 sky130_fd_sc_hd__decap_4
XFILLER_22_109 vssd1 vssd1 vccd1 vccd1 sky130_fd_sc_hd__decap_6
XFILLER_15_150 vssd1 vssd1 vccd1 vccd1 sky130_fd_sc_hd__decap_6
XPHY_3 vssd1 vssd1 vccd1 vccd1 sky130_fd_sc_hd__decap_3
XFILLER_7_30 vssd1 vssd1 vccd1 vccd1 sky130_fd_sc_hd__decap_8
XFILLER_16_94 vssd1 vssd1 vccd1 vccd1 sky130_fd_sc_hd__fill_1
XFILLER_16_83 vssd1 vssd1 vccd1 vccd1 sky130_fd_sc_hd__fill_1
XFILLER_5_116 vssd1 vssd1 vccd1 vccd1 sky130_fd_sc_hd__decap_8
Xtristate_sum_outputs\[5\]._0_ _274_/A input52/X vssd1 vssd1 vccd1 vccd1 ring_osc_out
+ sky130_fd_sc_hd__ebufn_8
XFILLER_4_75 vssd1 vssd1 vccd1 vccd1 sky130_fd_sc_hd__decap_8
X_251_ _245_/Y _215_/B done _250_/Y _246_/Y vssd1 vssd1 vccd1 vccd1 _251_/X sky130_fd_sc_hd__o311a_1
XFILLER_13_62 vssd1 vssd1 vccd1 vccd1 sky130_fd_sc_hd__decap_12
XFILLER_1_152 vssd1 vssd1 vccd1 vccd1 sky130_fd_sc_hd__decap_4
X_182_ _182_/A _182_/B vssd1 vssd1 vccd1 vccd1 _274_/A sky130_fd_sc_hd__xnor2_2
XFILLER_18_29 vssd1 vssd1 vccd1 vccd1 sky130_fd_sc_hd__decap_12
XFILLER_24_72 vssd1 vssd1 vccd1 vccd1 sky130_fd_sc_hd__fill_1
X_234_ _234_/A _234_/B vssd1 vssd1 vccd1 vccd1 _263_/D sky130_fd_sc_hd__nor2_1
XFILLER_1_54 vssd1 vssd1 vccd1 vccd1 sky130_fd_sc_hd__fill_2
X_165_ _165_/A _165_/B vssd1 vssd1 vccd1 vccd1 _166_/B sky130_fd_sc_hd__nor2_1
XFILLER_19_94 vssd1 vssd1 vccd1 vccd1 sky130_fd_sc_hd__decap_6
XFILLER_19_50 vssd1 vssd1 vccd1 vccd1 sky130_fd_sc_hd__decap_6
X_217_ _259_/Q _214_/A _216_/X ring_osc_counter_out[2] ring_osc_counter_out[3] vssd1
+ vssd1 vccd1 vccd1 _234_/A sky130_fd_sc_hd__o2111a_2
X_148_ _252_/Q _148_/B vssd1 vssd1 vccd1 vccd1 _148_/X sky130_fd_sc_hd__xor2_1
Xinverters\[15\]._0_ inverters\[15\]._0_/A vssd1 vssd1 vccd1 vccd1 inverters\[16\]._0_/A
+ sky130_fd_sc_hd__inv_2
XFILLER_15_140 vssd1 vssd1 vccd1 vccd1 sky130_fd_sc_hd__decap_4
XPHY_4 vssd1 vssd1 vccd1 vccd1 sky130_fd_sc_hd__decap_3
Xtristate_ring_inputs\[3\]._0_ _153_/Y input20/X vssd1 vssd1 vccd1 vccd1 _168_/A sky130_fd_sc_hd__ebufn_2
XFILLER_7_42 vssd1 vssd1 vccd1 vccd1 sky130_fd_sc_hd__decap_4
XFILLER_8_114 vssd1 vssd1 vccd1 vccd1 sky130_fd_sc_hd__decap_12
XFILLER_8_136 vssd1 vssd1 vccd1 vccd1 sky130_fd_sc_hd__decap_4
XFILLER_5_128 vssd1 vssd1 vccd1 vccd1 sky130_fd_sc_hd__decap_4
XFILLER_23_19 vssd1 vssd1 vccd1 vccd1 sky130_fd_sc_hd__decap_4
XFILLER_4_150 vssd1 vssd1 vccd1 vccd1 sky130_fd_sc_hd__decap_6
X_250_ _245_/Y _249_/X _258_/Q vssd1 vssd1 vccd1 vccd1 _250_/Y sky130_fd_sc_hd__o21ai_1
XFILLER_13_85 vssd1 vssd1 vccd1 vccd1 sky130_fd_sc_hd__decap_4
XFILLER_13_74 vssd1 vssd1 vccd1 vccd1 sky130_fd_sc_hd__decap_8
X_181_ _177_/A _177_/B _174_/B vssd1 vssd1 vccd1 vccd1 _182_/B sky130_fd_sc_hd__a21oi_1
X_233_ ring_osc_counter_out[3] _238_/A vssd1 vssd1 vccd1 vccd1 _234_/B sky130_fd_sc_hd__nor2_1
X_164_ _164_/A _164_/B vssd1 vssd1 vccd1 vccd1 _165_/B sky130_fd_sc_hd__and2_1
Xtristate_sum_outputs\[4\]._0_ _273_/A input51/X vssd1 vssd1 vccd1 vccd1 ring_osc_out
+ sky130_fd_sc_hd__ebufn_8
XFILLER_19_105 vssd1 vssd1 vccd1 vccd1 sky130_fd_sc_hd__decap_6
XFILLER_25_108 vssd1 vssd1 vccd1 vccd1 sky130_fd_sc_hd__decap_4
X_216_ ring_osc_counter_out[1] ring_osc_counter_out[0] vssd1 vssd1 vccd1 vccd1 _216_/X
+ sky130_fd_sc_hd__and2_1
XFILLER_18_3 vssd1 vssd1 vccd1 vccd1 sky130_fd_sc_hd__decap_12
X_147_ _147_/A vssd1 vssd1 vccd1 vccd1 _253_/D sky130_fd_sc_hd__clkbuf_1
XFILLER_24_152 vssd1 vssd1 vccd1 vccd1 sky130_fd_sc_hd__decap_4
XFILLER_24_141 vssd1 vssd1 vccd1 vccd1 sky130_fd_sc_hd__fill_1
XFILLER_21_96 vssd1 vssd1 vccd1 vccd1 sky130_fd_sc_hd__fill_1
XFILLER_21_63 vssd1 vssd1 vccd1 vccd1 sky130_fd_sc_hd__decap_4
XPHY_5 vssd1 vssd1 vccd1 vccd1 sky130_fd_sc_hd__decap_3
XFILLER_21_155 vssd1 vssd1 vccd1 vccd1 sky130_fd_sc_hd__fill_1
XFILLER_12_133 vssd1 vssd1 vccd1 vccd1 sky130_fd_sc_hd__decap_6
Xinverters\[14\]._0_ inverters\[14\]._0_/A vssd1 vssd1 vccd1 vccd1 inverters\[15\]._0_/A
+ sky130_fd_sc_hd__inv_2
XFILLER_8_126 vssd1 vssd1 vccd1 vccd1 sky130_fd_sc_hd__decap_6
Xtristate_ring_inputs\[2\]._0_ _153_/Y input19/X vssd1 vssd1 vccd1 vccd1 _164_/A sky130_fd_sc_hd__ebufn_4
XFILLER_4_66 vssd1 vssd1 vccd1 vccd1 sky130_fd_sc_hd__decap_4
XFILLER_4_88 vssd1 vssd1 vccd1 vccd1 sky130_fd_sc_hd__decap_4
XFILLER_4_99 vssd1 vssd1 vccd1 vccd1 sky130_fd_sc_hd__decap_4
X_180_ _187_/A _180_/B vssd1 vssd1 vccd1 vccd1 _182_/A sky130_fd_sc_hd__nor2_1
XFILLER_24_85 vssd1 vssd1 vccd1 vccd1 sky130_fd_sc_hd__decap_3
X_232_ ring_osc_counter_out[2] _237_/B vssd1 vssd1 vccd1 vccd1 _238_/A sky130_fd_sc_hd__and2_1
X_163_ _164_/A _164_/B vssd1 vssd1 vccd1 vccd1 _165_/A sky130_fd_sc_hd__nor2_1
XFILLER_19_139 vssd1 vssd1 vccd1 vccd1 sky130_fd_sc_hd__decap_4
X_215_ _259_/Q _215_/B vssd1 vssd1 vccd1 vccd1 done sky130_fd_sc_hd__nor2_4
XFILLER_18_150 vssd1 vssd1 vccd1 vccd1 sky130_fd_sc_hd__decap_6
X_146_ _145_/X _253_/Q _146_/S vssd1 vssd1 vccd1 vccd1 _147_/A sky130_fd_sc_hd__mux2_1
Xtristate_sum_outputs\[3\]._0_ _272_/A input50/X vssd1 vssd1 vccd1 vccd1 ring_osc_out
+ sky130_fd_sc_hd__ebufn_8
XFILLER_21_42 vssd1 vssd1 vccd1 vccd1 sky130_fd_sc_hd__decap_4
XPHY_6 vssd1 vssd1 vccd1 vccd1 sky130_fd_sc_hd__decap_3
XFILLER_7_55 vssd1 vssd1 vccd1 vccd1 sky130_fd_sc_hd__fill_1
X_129_ _256_/Q _249_/C vssd1 vssd1 vccd1 vccd1 _129_/Y sky130_fd_sc_hd__xnor2_1
XFILLER_5_108 vssd1 vssd1 vccd1 vccd1 sky130_fd_sc_hd__decap_4
XFILLER_13_32 vssd1 vssd1 vccd1 vccd1 sky130_fd_sc_hd__decap_12
Xinverters\[13\]._0_ inverters\[13\]._0_/A vssd1 vssd1 vccd1 vccd1 inverters\[14\]._0_/A
+ sky130_fd_sc_hd__inv_2
XFILLER_8_3 vssd1 vssd1 vccd1 vccd1 sky130_fd_sc_hd__decap_12
Xtristate_ext_inputs\[7\]._0_ input8/X input16/X vssd1 vssd1 vccd1 vccd1 _190_/A sky130_fd_sc_hd__ebufn_2
Xtristate_ring_inputs\[1\]._0_ _153_/Y input18/X vssd1 vssd1 vccd1 vccd1 _161_/A sky130_fd_sc_hd__ebufn_2
X_231_ _259_/Q _215_/B _216_/X vssd1 vssd1 vccd1 vccd1 _237_/B sky130_fd_sc_hd__o21a_1
X_162_ _156_/A _156_/B _160_/B _161_/X vssd1 vssd1 vccd1 vccd1 _166_/A sky130_fd_sc_hd__a31o_2
XFILLER_1_57 vssd1 vssd1 vccd1 vccd1 sky130_fd_sc_hd__decap_4
XFILLER_1_46 vssd1 vssd1 vccd1 vccd1 sky130_fd_sc_hd__decap_8
XTAP_90 vssd1 vccd1 sky130_fd_sc_hd__tapvpwrvgnd_1
Xinput1 a_input[0] vssd1 vssd1 vccd1 vccd1 input1/X sky130_fd_sc_hd__clkbuf_1
XFILLER_10_11 vssd1 vssd1 vccd1 vccd1 sky130_fd_sc_hd__decap_4
XFILLER_10_88 vssd1 vssd1 vccd1 vccd1 sky130_fd_sc_hd__decap_8
XFILLER_10_99 vssd1 vssd1 vccd1 vccd1 sky130_fd_sc_hd__decap_12
X_214_ _214_/A vssd1 vssd1 vccd1 vccd1 _215_/B sky130_fd_sc_hd__clkbuf_2
X_145_ _144_/Y _145_/A1 _244_/A vssd1 vssd1 vccd1 vccd1 _145_/X sky130_fd_sc_hd__mux2_1
XPHY_7 vssd1 vssd1 vccd1 vccd1 sky130_fd_sc_hd__decap_3
X_128_ _128_/A vssd1 vssd1 vccd1 vccd1 _257_/D sky130_fd_sc_hd__clkbuf_1
XFILLER_21_135 vssd1 vssd1 vccd1 vccd1 sky130_fd_sc_hd__decap_8
XFILLER_16_43 vssd1 vssd1 vccd1 vccd1 sky130_fd_sc_hd__decap_4
Xtristate_sum_outputs\[2\]._0_ _271_/A input49/X vssd1 vssd1 vccd1 vccd1 ring_osc_out
+ sky130_fd_sc_hd__ebufn_8
XFILLER_13_44 vssd1 vssd1 vccd1 vccd1 sky130_fd_sc_hd__decap_12
XFILLER_24_76 vssd1 vssd1 vccd1 vccd1 sky130_fd_sc_hd__decap_8
X_230_ _230_/A vssd1 vssd1 vccd1 vccd1 _230_/Y sky130_fd_sc_hd__inv_2
Xcontrol2._0_ control2._0_/A input34/X vssd1 vssd1 vccd1 vccd1 ring_osc_out sky130_fd_sc_hd__ebufn_8
X_161_ _161_/A _161_/B vssd1 vssd1 vccd1 vccd1 _161_/X sky130_fd_sc_hd__and2_1
XTAP_91 vssd1 vccd1 sky130_fd_sc_hd__tapvpwrvgnd_1
Xinverters\[12\]._0_ inverters\[12\]._0_/A vssd1 vssd1 vccd1 vccd1 inverters\[13\]._0_/A
+ sky130_fd_sc_hd__inv_2
Xinput2 a_input[1] vssd1 vssd1 vccd1 vccd1 input2/X sky130_fd_sc_hd__clkbuf_1
XFILLER_10_78 vssd1 vssd1 vccd1 vccd1 sky130_fd_sc_hd__decap_6
XTAP_80 vssd1 vccd1 sky130_fd_sc_hd__tapvpwrvgnd_1
Xtristate_ext_inputs\[6\]._0_ input7/X input15/X vssd1 vssd1 vccd1 vccd1 _184_/A sky130_fd_sc_hd__ebufn_4
X_213_ _258_/Q _257_/Q _256_/Q _249_/C vssd1 vssd1 vccd1 vccd1 _214_/A sky130_fd_sc_hd__or4_1
Xtristate_ring_inputs\[0\]._0_ _153_/Y input17/X vssd1 vssd1 vccd1 vccd1 _156_/A sky130_fd_sc_hd__ebufn_2
X_144_ _253_/Q _252_/Q vssd1 vssd1 vccd1 vccd1 _144_/Y sky130_fd_sc_hd__xnor2_1
XFILLER_24_111 vssd1 vssd1 vccd1 vccd1 sky130_fd_sc_hd__decap_3
XFILLER_21_88 vssd1 vssd1 vccd1 vccd1 sky130_fd_sc_hd__decap_8
XFILLER_21_55 vssd1 vssd1 vccd1 vccd1 sky130_fd_sc_hd__fill_1
X_127_ _124_/X _257_/Q _146_/S vssd1 vssd1 vccd1 vccd1 _128_/A sky130_fd_sc_hd__mux2_1
XPHY_8 vssd1 vssd1 vccd1 vccd1 sky130_fd_sc_hd__decap_3
XFILLER_7_57 vssd1 vssd1 vccd1 vccd1 sky130_fd_sc_hd__decap_12
XFILLER_7_79 vssd1 vssd1 vccd1 vccd1 sky130_fd_sc_hd__decap_12
XFILLER_21_147 vssd1 vssd1 vccd1 vccd1 sky130_fd_sc_hd__decap_8
XFILLER_21_125 vssd1 vssd1 vccd1 vccd1 sky130_fd_sc_hd__fill_1
XFILLER_16_88 vssd1 vssd1 vccd1 vccd1 sky130_fd_sc_hd__decap_6
XFILLER_16_33 vssd1 vssd1 vccd1 vccd1 sky130_fd_sc_hd__decap_6
XFILLER_8_107 vssd1 vssd1 vccd1 vccd1 sky130_fd_sc_hd__decap_4
XFILLER_4_132 vssd1 vssd1 vccd1 vccd1 sky130_fd_sc_hd__fill_1
Xtristate_sum_outputs\[1\]._0_ _270_/A input48/X vssd1 vssd1 vccd1 vccd1 ring_osc_out
+ sky130_fd_sc_hd__ebufn_8
XFILLER_24_99 vssd1 vssd1 vccd1 vccd1 sky130_fd_sc_hd__fill_1
X_160_ _160_/A _160_/B vssd1 vssd1 vccd1 vccd1 _270_/A sky130_fd_sc_hd__xnor2_2
Xinput3 a_input[2] vssd1 vssd1 vccd1 vccd1 input3/X sky130_fd_sc_hd__clkbuf_1
XTAP_92 vssd1 vccd1 sky130_fd_sc_hd__tapvpwrvgnd_1
XTAP_70 vssd1 vccd1 sky130_fd_sc_hd__tapvpwrvgnd_1
XTAP_81 vssd1 vccd1 sky130_fd_sc_hd__tapvpwrvgnd_1
X_212_ _255_/Q _254_/Q _253_/Q _252_/Q vssd1 vssd1 vccd1 vccd1 _249_/C sky130_fd_sc_hd__or4_2
X_143_ _143_/A vssd1 vssd1 vccd1 vccd1 _254_/D sky130_fd_sc_hd__clkbuf_1
XFILLER_10_24 vssd1 vssd1 vccd1 vccd1 sky130_fd_sc_hd__decap_4
XFILLER_10_35 vssd1 vssd1 vccd1 vccd1 sky130_fd_sc_hd__decap_4
XFILLER_18_131 vssd1 vssd1 vccd1 vccd1 sky130_fd_sc_hd__decap_8
XFILLER_21_67 vssd1 vssd1 vccd1 vccd1 sky130_fd_sc_hd__fill_1
XFILLER_2_80 vssd1 vssd1 vccd1 vccd1 sky130_fd_sc_hd__decap_4
X_126_ _141_/S _148_/B vssd1 vssd1 vccd1 vccd1 _146_/S sky130_fd_sc_hd__nor2_4
XPHY_9 vssd1 vssd1 vccd1 vccd1 sky130_fd_sc_hd__decap_3