* NGSPICE file created from instrumented_adder.ext - technology: sky130A

* Black-box entry subcircuit for sky130_fd_sc_hd__fill_1 abstract view
.subckt sky130_fd_sc_hd__fill_1 VGND VNB VPB VPWR
.ends

* Black-box entry subcircuit for sky130_fd_sc_hd__decap_6 abstract view
.subckt sky130_fd_sc_hd__decap_6 VGND VNB VPB VPWR
.ends

* Black-box entry subcircuit for sky130_fd_sc_hd__inv_2 abstract view
.subckt sky130_fd_sc_hd__inv_2 A VGND VNB VPB VPWR Y
.ends

* Black-box entry subcircuit for sky130_fd_sc_hd__dfrtp_4 abstract view
.subckt sky130_fd_sc_hd__dfrtp_4 CLK D RESET_B VGND VNB VPB VPWR Q
.ends

* Black-box entry subcircuit for sky130_fd_sc_hd__decap_12 abstract view
.subckt sky130_fd_sc_hd__decap_12 VGND VNB VPB VPWR
.ends

* Black-box entry subcircuit for sky130_fd_sc_hd__decap_8 abstract view
.subckt sky130_fd_sc_hd__decap_8 VGND VNB VPB VPWR
.ends

* Black-box entry subcircuit for sky130_fd_sc_hd__o21ai_1 abstract view
.subckt sky130_fd_sc_hd__o21ai_1 A1 A2 B1 VGND VNB VPB VPWR Y
.ends

* Black-box entry subcircuit for sky130_fd_sc_hd__decap_4 abstract view
.subckt sky130_fd_sc_hd__decap_4 VGND VNB VPB VPWR
.ends

* Black-box entry subcircuit for sky130_fd_sc_hd__o211a_1 abstract view
.subckt sky130_fd_sc_hd__o211a_1 A1 A2 B1 C1 VGND VNB VPB VPWR X
.ends

* Black-box entry subcircuit for sky130_fd_sc_hd__fill_2 abstract view
.subckt sky130_fd_sc_hd__fill_2 VGND VNB VPB VPWR
.ends

* Black-box entry subcircuit for sky130_fd_sc_hd__decap_3 abstract view
.subckt sky130_fd_sc_hd__decap_3 VGND VNB VPB VPWR
.ends

* Black-box entry subcircuit for sky130_fd_sc_hd__nor2_1 abstract view
.subckt sky130_fd_sc_hd__nor2_1 A B VGND VNB VPB VPWR Y
.ends

* Black-box entry subcircuit for sky130_fd_sc_hd__nand2_1 abstract view
.subckt sky130_fd_sc_hd__nand2_1 A B VGND VNB VPB VPWR Y
.ends

* Black-box entry subcircuit for sky130_fd_sc_hd__o311a_1 abstract view
.subckt sky130_fd_sc_hd__o311a_1 A1 A2 A3 B1 C1 VGND VNB VPB VPWR X
.ends

* Black-box entry subcircuit for sky130_fd_sc_hd__xnor2_1 abstract view
.subckt sky130_fd_sc_hd__xnor2_1 A B VGND VNB VPB VPWR Y
.ends

* Black-box entry subcircuit for sky130_fd_sc_hd__clkbuf_1 abstract view
.subckt sky130_fd_sc_hd__clkbuf_1 A VGND VNB VPB VPWR X
.ends

* Black-box entry subcircuit for sky130_fd_sc_hd__clkbuf_16 abstract view
.subckt sky130_fd_sc_hd__clkbuf_16 A VGND VNB VPB VPWR X
.ends

* Black-box entry subcircuit for sky130_fd_sc_hd__and2_1 abstract view
.subckt sky130_fd_sc_hd__and2_1 A B VGND VNB VPB VPWR X
.ends

* Black-box entry subcircuit for sky130_fd_sc_hd__or2_1 abstract view
.subckt sky130_fd_sc_hd__or2_1 A B VGND VNB VPB VPWR X
.ends

* Black-box entry subcircuit for sky130_fd_sc_hd__clkinv_2 abstract view
.subckt sky130_fd_sc_hd__clkinv_2 A VGND VNB VPB VPWR Y
.ends

* Black-box entry subcircuit for sky130_fd_sc_hd__nand2_4 abstract view
.subckt sky130_fd_sc_hd__nand2_4 A B VGND VNB VPB VPWR Y
.ends

* Black-box entry subcircuit for sky130_fd_sc_hd__dfxtp_1 abstract view
.subckt sky130_fd_sc_hd__dfxtp_1 CLK D VGND VNB VPB VPWR Q
.ends

* Black-box entry subcircuit for sky130_fd_sc_hd__a211o_1 abstract view
.subckt sky130_fd_sc_hd__a211o_1 A1 A2 B1 C1 VGND VNB VPB VPWR X
.ends

* Black-box entry subcircuit for sky130_fd_sc_hd__a21oi_1 abstract view
.subckt sky130_fd_sc_hd__a21oi_1 A1 A2 B1 VGND VNB VPB VPWR Y
.ends

* Black-box entry subcircuit for sky130_fd_sc_hd__dlymetal6s2s_1 abstract view
.subckt sky130_fd_sc_hd__dlymetal6s2s_1 A VGND VNB VPB VPWR X
.ends

* Black-box entry subcircuit for sky130_fd_sc_hd__and3_1 abstract view
.subckt sky130_fd_sc_hd__and3_1 A B C VGND VNB VPB VPWR X
.ends

* Black-box entry subcircuit for sky130_fd_sc_hd__clkbuf_2 abstract view
.subckt sky130_fd_sc_hd__clkbuf_2 A VGND VNB VPB VPWR X
.ends

* Black-box entry subcircuit for sky130_fd_sc_hd__xor2_1 abstract view
.subckt sky130_fd_sc_hd__xor2_1 A B VGND VNB VPB VPWR X
.ends

* Black-box entry subcircuit for sky130_fd_sc_hd__buf_2 abstract view
.subckt sky130_fd_sc_hd__buf_2 A VGND VNB VPB VPWR X
.ends

* Black-box entry subcircuit for sky130_fd_sc_hd__tapvpwrvgnd_1 abstract view
.subckt sky130_fd_sc_hd__tapvpwrvgnd_1 VGND VPWR
.ends

* Black-box entry subcircuit for sky130_fd_sc_hd__o21ba_1 abstract view
.subckt sky130_fd_sc_hd__o21ba_1 A1 A2 B1_N VGND VNB VPB VPWR X
.ends

* Black-box entry subcircuit for sky130_fd_sc_hd__a211oi_1 abstract view
.subckt sky130_fd_sc_hd__a211oi_1 A1 A2 B1 C1 VGND VNB VPB VPWR Y
.ends

* Black-box entry subcircuit for sky130_fd_sc_hd__or3_1 abstract view
.subckt sky130_fd_sc_hd__or3_1 A B C VGND VNB VPB VPWR X
.ends

* Black-box entry subcircuit for sky130_fd_sc_hd__and4_1 abstract view
.subckt sky130_fd_sc_hd__and4_1 A B C D VGND VNB VPB VPWR X
.ends

* Black-box entry subcircuit for sky130_fd_sc_hd__nor2_4 abstract view
.subckt sky130_fd_sc_hd__nor2_4 A B VGND VNB VPB VPWR Y
.ends

* Black-box entry subcircuit for sky130_fd_sc_hd__or3_4 abstract view
.subckt sky130_fd_sc_hd__or3_4 A B C VGND VNB VPB VPWR X
.ends

* Black-box entry subcircuit for sky130_fd_sc_hd__or3_2 abstract view
.subckt sky130_fd_sc_hd__or3_2 A B C VGND VNB VPB VPWR X
.ends

* Black-box entry subcircuit for sky130_fd_sc_hd__o211ai_1 abstract view
.subckt sky130_fd_sc_hd__o211ai_1 A1 A2 B1 C1 VGND VNB VPB VPWR Y
.ends

* Black-box entry subcircuit for sky130_fd_sc_hd__a31o_1 abstract view
.subckt sky130_fd_sc_hd__a31o_1 A1 A2 A3 B1 VGND VNB VPB VPWR X
.ends

.subckt instrumented_adder b[0] b[1] b[2] b[3] b[4] b[5] b[6] b[7] bypass chain clk
+ extra_inverter reset ring_osc_counter_out[0] ring_osc_counter_out[1] ring_osc_counter_out[2]
+ ring_osc_counter_out[3] ring_osc_counter_out[4] ring_osc_counter_out[5] ring_osc_counter_out[6]
+ ring_osc_counter_out[7] run time_count_overflow vccd1 vssd1
XFILLER_7_7 vssd1 vssd1 vccd1 vccd1 sky130_fd_sc_hd__fill_1
XFILLER_10_103 vssd1 vssd1 vccd1 vccd1 sky130_fd_sc_hd__decap_6
XFILLER_12_76 vssd1 vssd1 vccd1 vccd1 sky130_fd_sc_hd__fill_1
Xbuffers\[6\]._0_ buffers\[6\]._0_/A vssd1 vssd1 vccd1 vccd1 buffers\[7\]._0_/A sky130_fd_sc_hd__inv_2
X_131_ _102_/Y _131_/D _077_/Y vssd1 vssd1 vccd1 vccd1 ring_osc_counter_out[0] sky130_fd_sc_hd__dfrtp_4
XFILLER_0_57 vssd1 vssd1 vccd1 vccd1 sky130_fd_sc_hd__decap_12
XFILLER_9_11 vssd1 vssd1 vccd1 vccd1 sky130_fd_sc_hd__decap_8
XFILLER_9_22 vssd1 vssd1 vccd1 vccd1 sky130_fd_sc_hd__decap_12
X_114_ _141_/Q _119_/B _113_/Y vssd1 vssd1 vccd1 vccd1 _114_/Y sky130_fd_sc_hd__o21ai_1
XFILLER_13_3 vssd1 vssd1 vccd1 vccd1 sky130_fd_sc_hd__decap_4
XFILLER_17_109 vssd1 vssd1 vccd1 vccd1 sky130_fd_sc_hd__fill_1
XFILLER_12_11 vssd1 vssd1 vccd1 vccd1 sky130_fd_sc_hd__decap_4
X_130_ _145_/Q _128_/B _119_/A _146_/Q vssd1 vssd1 vccd1 vccd1 _146_/D sky130_fd_sc_hd__o211a_1
XFILLER_0_69 vssd1 vssd1 vccd1 vccd1 sky130_fd_sc_hd__fill_2
XFILLER_0_25 vssd1 vssd1 vccd1 vccd1 sky130_fd_sc_hd__decap_3
XFILLER_9_34 vssd1 vssd1 vccd1 vccd1 sky130_fd_sc_hd__decap_12
Xbuffers\[5\]._0_ buffers\[5\]._0_/A vssd1 vssd1 vccd1 vccd1 buffers\[6\]._0_/A sky130_fd_sc_hd__inv_2
XFILLER_18_32 vssd1 vssd1 vccd1 vccd1 sky130_fd_sc_hd__decap_12
X_113_ _140_/Q _139_/Q vssd1 vssd1 vccd1 vccd1 _113_/Y sky130_fd_sc_hd__nor2_1
XFILLER_6_35 vssd1 vssd1 vccd1 vccd1 sky130_fd_sc_hd__decap_4
XFILLER_15_33 vssd1 vssd1 vccd1 vccd1 sky130_fd_sc_hd__decap_4
XFILLER_6_109 vssd1 vssd1 vccd1 vccd1 sky130_fd_sc_hd__fill_1
XFILLER_12_45 vssd1 vssd1 vccd1 vccd1 sky130_fd_sc_hd__decap_4
XFILLER_2_101 vssd1 vssd1 vccd1 vccd1 sky130_fd_sc_hd__decap_8
XFILLER_9_46 vssd1 vssd1 vccd1 vccd1 sky130_fd_sc_hd__fill_2
XFILLER_18_44 vssd1 vssd1 vccd1 vccd1 sky130_fd_sc_hd__decap_12
X_112_ _140_/Q _139_/Q vssd1 vssd1 vccd1 vccd1 _112_/Y sky130_fd_sc_hd__nand2_1
Xbuffers\[4\]._0_ buffers\[4\]._0_/A vssd1 vssd1 vccd1 vccd1 buffers\[5\]._0_/A sky130_fd_sc_hd__inv_2
XFILLER_15_12 vssd1 vssd1 vccd1 vccd1 sky130_fd_sc_hd__decap_4
XFILLER_3_37 vssd1 vssd1 vccd1 vccd1 sky130_fd_sc_hd__decap_12
XFILLER_3_15 vssd1 vssd1 vccd1 vccd1 sky130_fd_sc_hd__decap_3
X_111_ _141_/Q _140_/Q _119_/B _119_/A _110_/Y vssd1 vssd1 vccd1 vccd1 _139_/D sky130_fd_sc_hd__o311a_1
XFILLER_6_15 vssd1 vssd1 vccd1 vccd1 sky130_fd_sc_hd__decap_12
XFILLER_11_3 vssd1 vssd1 vccd1 vccd1 sky130_fd_sc_hd__decap_4
Xbuffers\[3\]._0_ buffers\[3\]._0_/A vssd1 vssd1 vccd1 vccd1 buffers\[4\]._0_/A sky130_fd_sc_hd__inv_2
XFILLER_3_49 vssd1 vssd1 vccd1 vccd1 sky130_fd_sc_hd__decap_6
XFILLER_4_81 vssd1 vssd1 vccd1 vccd1 sky130_fd_sc_hd__decap_3
XFILLER_0_17 vssd1 vssd1 vccd1 vccd1 sky130_fd_sc_hd__decap_8
XFILLER_18_57 vssd1 vssd1 vccd1 vccd1 sky130_fd_sc_hd__decap_12
X_110_ _139_/Q vssd1 vssd1 vccd1 vccd1 _110_/Y sky130_fd_sc_hd__inv_2
XFILLER_6_27 vssd1 vssd1 vccd1 vccd1 sky130_fd_sc_hd__fill_1
XFILLER_13_7 vssd1 vssd1 vccd1 vccd1 sky130_fd_sc_hd__fill_1
XFILLER_15_69 vssd1 vssd1 vccd1 vccd1 sky130_fd_sc_hd__decap_12
XFILLER_9_109 vssd1 vssd1 vccd1 vccd1 sky130_fd_sc_hd__fill_1
XFILLER_12_26 vssd1 vssd1 vccd1 vccd1 sky130_fd_sc_hd__fill_2
XFILLER_12_37 vssd1 vssd1 vccd1 vccd1 sky130_fd_sc_hd__decap_3
Xbuffers\[2\]._0_ buffers\[2\]._0_/A vssd1 vssd1 vccd1 vccd1 buffers\[3\]._0_/A sky130_fd_sc_hd__inv_2
XFILLER_0_29 vssd1 vssd1 vccd1 vccd1 sky130_fd_sc_hd__decap_12
XFILLER_18_69 vssd1 vssd1 vccd1 vccd1 sky130_fd_sc_hd__decap_12
XFILLER_1_3 vssd1 vssd1 vccd1 vccd1 sky130_fd_sc_hd__decap_6
XFILLER_1_83 vssd1 vssd1 vccd1 vccd1 sky130_fd_sc_hd__fill_1
XFILLER_15_26 vssd1 vssd1 vccd1 vccd1 sky130_fd_sc_hd__decap_4
XFILLER_15_48 vssd1 vssd1 vccd1 vccd1 sky130_fd_sc_hd__fill_1
XPHY_0 vssd1 vssd1 vccd1 vccd1 sky130_fd_sc_hd__decap_3
XFILLER_10_109 vssd1 vssd1 vccd1 vccd1 sky130_fd_sc_hd__fill_1
XFILLER_4_50 vssd1 vssd1 vccd1 vccd1 sky130_fd_sc_hd__decap_4
XFILLER_4_61 vssd1 vssd1 vccd1 vccd1 sky130_fd_sc_hd__decap_4
XFILLER_3_7 vssd1 vssd1 vccd1 vccd1 sky130_fd_sc_hd__decap_8
Xbuffers\[1\]._0_ buffers\[1\]._0_/A vssd1 vssd1 vccd1 vccd1 buffers\[2\]._0_/A sky130_fd_sc_hd__inv_2
X_099_ ring_osc_counter_out[7] _099_/B vssd1 vssd1 vccd1 vccd1 _138_/D sky130_fd_sc_hd__xnor2_1
XFILLER_16_104 vssd1 vssd1 vccd1 vccd1 sky130_fd_sc_hd__decap_6
XPHY_1 vssd1 vssd1 vccd1 vccd1 sky130_fd_sc_hd__decap_3
XFILLER_4_73 vssd1 vssd1 vccd1 vccd1 sky130_fd_sc_hd__decap_8
XFILLER_13_93 vssd1 vssd1 vccd1 vccd1 sky130_fd_sc_hd__fill_2
XFILLER_18_27 vssd1 vssd1 vccd1 vccd1 sky130_fd_sc_hd__fill_1
X_098_ _098_/A vssd1 vssd1 vccd1 vccd1 _137_/D sky130_fd_sc_hd__clkbuf_1
XFILLER_10_83 vssd1 vssd1 vccd1 vccd1 sky130_fd_sc_hd__fill_1
XFILLER_10_94 vssd1 vssd1 vccd1 vccd1 sky130_fd_sc_hd__decap_4
Xbuffers\[0\]._0_ _083_/Y vssd1 vssd1 vccd1 vccd1 buffers\[1\]._0_/A sky130_fd_sc_hd__inv_2
XPHY_2 vssd1 vssd1 vccd1 vccd1 sky130_fd_sc_hd__decap_3
Xclkbuf_0_clk clk vssd1 vssd1 vccd1 vccd1 clkbuf_0_clk/X sky130_fd_sc_hd__clkbuf_16
XFILLER_11_7 vssd1 vssd1 vccd1 vccd1 sky130_fd_sc_hd__fill_1
XFILLER_7_40 vssd1 vssd1 vccd1 vccd1 sky130_fd_sc_hd__decap_3
XFILLER_12_18 vssd1 vssd1 vccd1 vccd1 sky130_fd_sc_hd__decap_8
XFILLER_12_29 vssd1 vssd1 vccd1 vccd1 sky130_fd_sc_hd__decap_8
XFILLER_4_85 vssd1 vssd1 vccd1 vccd1 sky130_fd_sc_hd__decap_12
XFILLER_13_61 vssd1 vssd1 vccd1 vccd1 sky130_fd_sc_hd__fill_1
X_097_ _099_/B _097_/B vssd1 vssd1 vccd1 vccd1 _098_/A sky130_fd_sc_hd__and2_1
XPHY_3 vssd1 vssd1 vccd1 vccd1 sky130_fd_sc_hd__decap_3
XFILLER_7_52 vssd1 vssd1 vccd1 vccd1 sky130_fd_sc_hd__decap_4
XFILLER_16_83 vssd1 vssd1 vccd1 vccd1 sky130_fd_sc_hd__fill_1
XFILLER_4_97 vssd1 vssd1 vccd1 vccd1 sky130_fd_sc_hd__fill_1
XFILLER_13_40 vssd1 vssd1 vccd1 vccd1 sky130_fd_sc_hd__fill_2
XFILLER_13_73 vssd1 vssd1 vccd1 vccd1 sky130_fd_sc_hd__fill_2
X_096_ ring_osc_counter_out[6] _096_/B vssd1 vssd1 vccd1 vccd1 _097_/B sky130_fd_sc_hd__or2_1
XFILLER_10_85 vssd1 vssd1 vccd1 vccd1 sky130_fd_sc_hd__decap_6
X_079_ ring_osc_counter_out[0] vssd1 vssd1 vccd1 vccd1 _131_/D sky130_fd_sc_hd__clkinv_2
XFILLER_15_19 vssd1 vssd1 vccd1 vccd1 sky130_fd_sc_hd__decap_4
XPHY_4 vssd1 vssd1 vccd1 vccd1 sky130_fd_sc_hd__decap_3
XFILLER_16_40 vssd1 vssd1 vccd1 vccd1 sky130_fd_sc_hd__fill_1
XFILLER_4_54 vssd1 vssd1 vccd1 vccd1 sky130_fd_sc_hd__fill_1
XFILLER_2_109 vssd1 vssd1 vccd1 vccd1 sky130_fd_sc_hd__fill_1
XFILLER_13_52 vssd1 vssd1 vccd1 vccd1 sky130_fd_sc_hd__decap_4
XFILLER_13_85 vssd1 vssd1 vccd1 vccd1 sky130_fd_sc_hd__decap_8
Xbuffers\[19\]._0_ buffers\[19\]._0_/A vssd1 vssd1 vccd1 vccd1 buffers\[20\]._0_/A
+ sky130_fd_sc_hd__inv_2
XFILLER_18_19 vssd1 vssd1 vccd1 vccd1 sky130_fd_sc_hd__decap_8
XFILLER_1_99 vssd1 vssd1 vccd1 vccd1 sky130_fd_sc_hd__decap_4
XFILLER_1_88 vssd1 vssd1 vccd1 vccd1 sky130_fd_sc_hd__decap_4
XFILLER_1_55 vssd1 vssd1 vccd1 vccd1 sky130_fd_sc_hd__fill_1
X_095_ ring_osc_counter_out[6] _096_/B vssd1 vssd1 vccd1 vccd1 _099_/B sky130_fd_sc_hd__nand2_1
XFILLER_10_75 vssd1 vssd1 vccd1 vccd1 sky130_fd_sc_hd__decap_8
X_078_ _109_/A _109_/B vssd1 vssd1 vccd1 vccd1 chain sky130_fd_sc_hd__nand2_4
XPHY_5 vssd1 vssd1 vccd1 vccd1 sky130_fd_sc_hd__decap_3
XFILLER_5_107 vssd1 vssd1 vccd1 vccd1 sky130_fd_sc_hd__decap_3
X_094_ _096_/B _094_/B vssd1 vssd1 vccd1 vccd1 _136_/D sky130_fd_sc_hd__nor2_1
Xbuffers\[18\]._0_ buffers\[18\]._0_/A vssd1 vssd1 vccd1 vccd1 buffers\[19\]._0_/A
+ sky130_fd_sc_hd__inv_2
XFILLER_10_32 vssd1 vssd1 vccd1 vccd1 sky130_fd_sc_hd__decap_12
X_146_ _146_/CLK _146_/D vssd1 vssd1 vccd1 vccd1 _146_/Q sky130_fd_sc_hd__dfxtp_1
X_077_ _077_/A vssd1 vssd1 vccd1 vccd1 _077_/Y sky130_fd_sc_hd__inv_2
XPHY_6 vssd1 vssd1 vccd1 vccd1 sky130_fd_sc_hd__decap_3
XFILLER_7_11 vssd1 vssd1 vccd1 vccd1 sky130_fd_sc_hd__decap_12
X_129_ _127_/Y _125_/X _128_/X _077_/A vssd1 vssd1 vccd1 vccd1 _145_/D sky130_fd_sc_hd__a211o_1
XFILLER_16_64 vssd1 vssd1 vccd1 vccd1 sky130_fd_sc_hd__decap_4
XFILLER_16_75 vssd1 vssd1 vccd1 vccd1 sky130_fd_sc_hd__decap_8
XFILLER_16_97 vssd1 vssd1 vccd1 vccd1 sky130_fd_sc_hd__decap_4
XFILLER_4_12 vssd1 vssd1 vccd1 vccd1 sky130_fd_sc_hd__decap_4
XFILLER_8_3 vssd1 vssd1 vccd1 vccd1 sky130_fd_sc_hd__decap_4
XFILLER_13_32 vssd1 vssd1 vccd1 vccd1 sky130_fd_sc_hd__decap_8
XFILLER_13_65 vssd1 vssd1 vccd1 vccd1 sky130_fd_sc_hd__decap_8
XFILLER_13_98 vssd1 vssd1 vccd1 vccd1 sky130_fd_sc_hd__decap_12
X_093_ ring_osc_counter_out[4] _092_/C ring_osc_counter_out[5] vssd1 vssd1 vccd1 vccd1
+ _094_/B sky130_fd_sc_hd__a21oi_1
XFILLER_1_79 vssd1 vssd1 vccd1 vccd1 sky130_fd_sc_hd__decap_4
XFILLER_1_57 vssd1 vssd1 vccd1 vccd1 sky130_fd_sc_hd__decap_6
Xinput1 b[0] vssd1 vssd1 vccd1 vccd1 input1/X sky130_fd_sc_hd__dlymetal6s2s_1
XFILLER_10_11 vssd1 vssd1 vccd1 vccd1 sky130_fd_sc_hd__decap_12
XFILLER_10_44 vssd1 vssd1 vccd1 vccd1 sky130_fd_sc_hd__decap_12
X_145_ _146_/CLK _145_/D vssd1 vssd1 vccd1 vccd1 _145_/Q sky130_fd_sc_hd__dfxtp_1
X_076_ _077_/A vssd1 vssd1 vccd1 vccd1 _076_/Y sky130_fd_sc_hd__inv_2
XPHY_7 vssd1 vssd1 vccd1 vccd1 sky130_fd_sc_hd__decap_3
Xbuffers\[17\]._0_ buffers\[17\]._0_/A vssd1 vssd1 vccd1 vccd1 buffers\[18\]._0_/A
+ sky130_fd_sc_hd__inv_2
X_128_ _145_/Q _128_/B vssd1 vssd1 vccd1 vccd1 _128_/X sky130_fd_sc_hd__and2_1
XFILLER_16_21 vssd1 vssd1 vccd1 vccd1 sky130_fd_sc_hd__decap_6
XFILLER_4_24 vssd1 vssd1 vccd1 vccd1 sky130_fd_sc_hd__decap_4
XFILLER_13_11 vssd1 vssd1 vccd1 vccd1 sky130_fd_sc_hd__decap_6
XFILLER_1_25 vssd1 vssd1 vccd1 vccd1 sky130_fd_sc_hd__decap_8
X_092_ ring_osc_counter_out[4] ring_osc_counter_out[5] _092_/C vssd1 vssd1 vccd1 vccd1
+ _096_/B sky130_fd_sc_hd__and3_1
Xinput2 bypass vssd1 vssd1 vccd1 vccd1 input2/X sky130_fd_sc_hd__clkbuf_1
XFILLER_10_23 vssd1 vssd1 vccd1 vccd1 sky130_fd_sc_hd__decap_4
XFILLER_10_56 vssd1 vssd1 vccd1 vccd1 sky130_fd_sc_hd__decap_12
X_144_ _146_/CLK _144_/D vssd1 vssd1 vccd1 vccd1 _144_/Q sky130_fd_sc_hd__dfxtp_1
X_075_ _075_/A vssd1 vssd1 vccd1 vccd1 _077_/A sky130_fd_sc_hd__clkbuf_2
XPHY_8 vssd1 vssd1 vccd1 vccd1 sky130_fd_sc_hd__decap_3
X_127_ _145_/Q vssd1 vssd1 vccd1 vccd1 _127_/Y sky130_fd_sc_hd__inv_2
XFILLER_7_57 vssd1 vssd1 vccd1 vccd1 sky130_fd_sc_hd__decap_6
XFILLER_7_79 vssd1 vssd1 vccd1 vccd1 sky130_fd_sc_hd__decap_4
XFILLER_16_3 vssd1 vssd1 vccd1 vccd1 sky130_fd_sc_hd__fill_1
XFILLER_16_88 vssd1 vssd1 vccd1 vccd1 sky130_fd_sc_hd__decap_6
Xbuffers\[16\]._0_ buffers\[16\]._0_/A vssd1 vssd1 vccd1 vccd1 buffers\[17\]._0_/A
+ sky130_fd_sc_hd__inv_2
XFILLER_13_45 vssd1 vssd1 vccd1 vccd1 sky130_fd_sc_hd__decap_4
X_091_ ring_osc_counter_out[4] _092_/C vssd1 vssd1 vccd1 vccd1 _135_/D sky130_fd_sc_hd__xor2_1
Xinput3 extra_inverter vssd1 vssd1 vccd1 vccd1 _083_/A sky130_fd_sc_hd__clkbuf_1
X_143_ _146_/CLK _143_/D vssd1 vssd1 vccd1 vccd1 _143_/Q sky130_fd_sc_hd__dfxtp_1
XFILLER_10_68 vssd1 vssd1 vccd1 vccd1 sky130_fd_sc_hd__decap_3
X_074_ _074_/A vssd1 vssd1 vccd1 vccd1 _074_/Y sky130_fd_sc_hd__inv_2
XFILLER_18_7 vssd1 vssd1 vccd1 vccd1 sky130_fd_sc_hd__decap_12
XPHY_9 vssd1 vssd1 vccd1 vccd1 sky130_fd_sc_hd__decap_3
X_126_ _144_/Q _121_/X _125_/X _077_/A vssd1 vssd1 vccd1 vccd1 _144_/D sky130_fd_sc_hd__a211o_1
XFILLER_16_34 vssd1 vssd1 vccd1 vccd1 sky130_fd_sc_hd__decap_6
X_109_ _109_/A _109_/B vssd1 vssd1 vccd1 vccd1 _109_/Y sky130_fd_sc_hd__nand2_1
XFILLER_13_57 vssd1 vssd1 vccd1 vccd1 sky130_fd_sc_hd__decap_4
XFILLER_5_80 vssd1 vssd1 vccd1 vccd1 sky130_fd_sc_hd__decap_4
XFILLER_1_49 vssd1 vssd1 vccd1 vccd1 sky130_fd_sc_hd__decap_6
XFILLER_6_3 vssd1 vssd1 vccd1 vccd1 sky130_fd_sc_hd__decap_12
Xbuffers\[15\]._0_ buffers\[15\]._0_/A vssd1 vssd1 vccd1 vccd1 buffers\[16\]._0_/A
+ sky130_fd_sc_hd__inv_2
X_090_ _092_/C _090_/B vssd1 vssd1 vccd1 vccd1 _134_/D sky130_fd_sc_hd__nor2_1
Xinput4 reset vssd1 vssd1 vccd1 vccd1 _075_/A sky130_fd_sc_hd__buf_2
XTAP_60 vssd1 vccd1 sky130_fd_sc_hd__tapvpwrvgnd_1
X_142_ _142_/CLK _142_/D vssd1 vssd1 vccd1 vccd1 _142_/Q sky130_fd_sc_hd__dfxtp_1
X_073_ _074_/A vssd1 vssd1 vccd1 vccd1 _073_/Y sky130_fd_sc_hd__inv_2
XFILLER_2_92 vssd1 vssd1 vccd1 vccd1 sky130_fd_sc_hd__decap_4
X_125_ _146_/Q _145_/Q _128_/B vssd1 vssd1 vccd1 vccd1 _125_/X sky130_fd_sc_hd__o21ba_1
X_108_ _109_/A _109_/B vssd1 vssd1 vccd1 vccd1 _108_/Y sky130_fd_sc_hd__nand2_1
XFILLER_4_38 vssd1 vssd1 vccd1 vccd1 sky130_fd_sc_hd__decap_12
XFILLER_4_101 vssd1 vssd1 vccd1 vccd1 sky130_fd_sc_hd__decap_8
XFILLER_13_25 vssd1 vssd1 vccd1 vccd1 sky130_fd_sc_hd__decap_4
XFILLER_8_7 vssd1 vssd1 vccd1 vccd1 sky130_fd_sc_hd__fill_1
Xinput5 run vssd1 vssd1 vccd1 vccd1 _109_/B sky130_fd_sc_hd__buf_2
XTAP_50 vssd1 vccd1 sky130_fd_sc_hd__tapvpwrvgnd_1
XTAP_61 vssd1 vccd1 sky130_fd_sc_hd__tapvpwrvgnd_1
X_141_ _142_/CLK _141_/D vssd1 vssd1 vccd1 vccd1 _141_/Q sky130_fd_sc_hd__dfxtp_1
X_072_ _074_/A vssd1 vssd1 vccd1 vccd1 _072_/Y sky130_fd_sc_hd__inv_2
XFILLER_2_82 vssd1 vssd1 vccd1 vccd1 sky130_fd_sc_hd__fill_2
XFILLER_2_60 vssd1 vssd1 vccd1 vccd1 sky130_fd_sc_hd__decap_6
Xbuffers\[14\]._0_ buffers\[14\]._0_/A vssd1 vssd1 vccd1 vccd1 buffers\[15\]._0_/A
+ sky130_fd_sc_hd__inv_2
X_124_ _124_/A _124_/B vssd1 vssd1 vccd1 vccd1 _128_/B sky130_fd_sc_hd__or2_1
XFILLER_12_106 vssd1 vssd1 vccd1 vccd1 sky130_fd_sc_hd__decap_4
XFILLER_16_14 vssd1 vssd1 vccd1 vccd1 sky130_fd_sc_hd__decap_4
XFILLER_14_3 vssd1 vssd1 vccd1 vccd1 sky130_fd_sc_hd__decap_4
X_107_ _109_/A _109_/B vssd1 vssd1 vccd1 vccd1 _107_/Y sky130_fd_sc_hd__nand2_1
XTAP_40 vssd1 vccd1 sky130_fd_sc_hd__tapvpwrvgnd_1
XTAP_51 vssd1 vccd1 sky130_fd_sc_hd__tapvpwrvgnd_1
XFILLER_10_27 vssd1 vssd1 vccd1 vccd1 sky130_fd_sc_hd__fill_1
XTAP_62 vssd1 vccd1 sky130_fd_sc_hd__tapvpwrvgnd_1
X_140_ _142_/CLK _140_/D vssd1 vssd1 vccd1 vccd1 _140_/Q sky130_fd_sc_hd__dfxtp_1
X_071_ _074_/A vssd1 vssd1 vccd1 vccd1 _071_/Y sky130_fd_sc_hd__inv_2
XFILLER_7_28 vssd1 vssd1 vccd1 vccd1 sky130_fd_sc_hd__decap_12
X_123_ _121_/X _122_/Y _075_/A time_count_overflow vssd1 vssd1 vccd1 vccd1 _143_/D
+ sky130_fd_sc_hd__a211oi_1
XFILLER_16_7 vssd1 vssd1 vccd1 vccd1 sky130_fd_sc_hd__decap_4
X_106_ _106_/A _106_/B vssd1 vssd1 vccd1 vccd1 _106_/Y sky130_fd_sc_hd__nand2_1
Xbuffers\[13\]._0_ buffers\[13\]._0_/A vssd1 vssd1 vccd1 vccd1 buffers\[14\]._0_/A
+ sky130_fd_sc_hd__inv_2
XFILLER_1_106 vssd1 vssd1 vccd1 vccd1 sky130_fd_sc_hd__decap_4
XFILLER_5_72 vssd1 vssd1 vccd1 vccd1 sky130_fd_sc_hd__decap_4
XTAP_41 vssd1 vccd1 sky130_fd_sc_hd__tapvpwrvgnd_1
XTAP_52 vssd1 vccd1 sky130_fd_sc_hd__tapvpwrvgnd_1
XTAP_63 vssd1 vccd1 sky130_fd_sc_hd__tapvpwrvgnd_1
XFILLER_4_3 vssd1 vssd1 vccd1 vccd1 sky130_fd_sc_hd__decap_4
X_070_ _074_/A vssd1 vssd1 vccd1 vccd1 _070_/Y sky130_fd_sc_hd__inv_2
XFILLER_2_51 vssd1 vssd1 vccd1 vccd1 sky130_fd_sc_hd__fill_1
Xclkbuf_1_1_0_clk clkbuf_0_clk/X vssd1 vssd1 vccd1 vccd1 _146_/CLK sky130_fd_sc_hd__clkbuf_2
X_122_ _142_/Q _124_/B _143_/Q vssd1 vssd1 vccd1 vccd1 _122_/Y sky130_fd_sc_hd__o21ai_1
XFILLER_16_27 vssd1 vssd1 vccd1 vccd1 sky130_fd_sc_hd__fill_1
X_105_ _106_/A _106_/B vssd1 vssd1 vccd1 vccd1 _105_/Y sky130_fd_sc_hd__nand2_1
XFILLER_13_17 vssd1 vssd1 vccd1 vccd1 sky130_fd_sc_hd__fill_1
Xbuffers\[12\]._0_ buffers\[12\]._0_/A vssd1 vssd1 vccd1 vccd1 buffers\[13\]._0_/A
+ sky130_fd_sc_hd__inv_2
XFILLER_5_62 vssd1 vssd1 vccd1 vccd1 sky130_fd_sc_hd__decap_4
XTAP_42 vssd1 vccd1 sky130_fd_sc_hd__tapvpwrvgnd_1
XTAP_53 vssd1 vccd1 sky130_fd_sc_hd__tapvpwrvgnd_1
XTAP_64 vssd1 vccd1 sky130_fd_sc_hd__tapvpwrvgnd_1
XFILLER_2_74 vssd1 vssd1 vccd1 vccd1 sky130_fd_sc_hd__decap_8
X_121_ _143_/Q _142_/Q _124_/B vssd1 vssd1 vccd1 vccd1 _121_/X sky130_fd_sc_hd__or3_1
XFILLER_15_106 vssd1 vssd1 vccd1 vccd1 sky130_fd_sc_hd__decap_4
Xclkbuf_1_0_0_clk clkbuf_0_clk/X vssd1 vssd1 vccd1 vccd1 _142_/CLK sky130_fd_sc_hd__clkbuf_2
X_104_ _106_/A _106_/B vssd1 vssd1 vccd1 vccd1 _104_/Y sky130_fd_sc_hd__nand2_1
XFILLER_17_93 vssd1 vssd1 vccd1 vccd1 sky130_fd_sc_hd__decap_12
XFILLER_12_3 vssd1 vssd1 vccd1 vccd1 sky130_fd_sc_hd__decap_4
XFILLER_5_52 vssd1 vssd1 vccd1 vccd1 sky130_fd_sc_hd__decap_4
XTAP_65 vssd1 vccd1 sky130_fd_sc_hd__tapvpwrvgnd_1
XTAP_43 vssd1 vccd1 sky130_fd_sc_hd__tapvpwrvgnd_1
XTAP_54 vssd1 vccd1 sky130_fd_sc_hd__tapvpwrvgnd_1
XFILLER_14_83 vssd1 vssd1 vccd1 vccd1 sky130_fd_sc_hd__fill_1
Xbuffers\[11\]._0_ buffers\[11\]._0_/A vssd1 vssd1 vccd1 vccd1 buffers\[12\]._0_/A
+ sky130_fd_sc_hd__inv_2
X_120_ _120_/A vssd1 vssd1 vccd1 vccd1 _142_/D sky130_fd_sc_hd__clkbuf_1
XFILLER_11_62 vssd1 vssd1 vccd1 vccd1 sky130_fd_sc_hd__decap_6
XFILLER_16_29 vssd1 vssd1 vccd1 vccd1 sky130_fd_sc_hd__fill_1
X_103_ _106_/A _106_/B vssd1 vssd1 vccd1 vccd1 _103_/Y sky130_fd_sc_hd__nand2_1
XFILLER_14_7 vssd1 vssd1 vccd1 vccd1 sky130_fd_sc_hd__fill_1
XFILLER_17_61 vssd1 vssd1 vccd1 vccd1 sky130_fd_sc_hd__decap_8
XFILLER_5_31 vssd1 vssd1 vccd1 vccd1 sky130_fd_sc_hd__fill_1
XFILLER_14_73 vssd1 vssd1 vccd1 vccd1 sky130_fd_sc_hd__fill_1
XTAP_66 vssd1 vccd1 sky130_fd_sc_hd__tapvpwrvgnd_1
XTAP_44 vssd1 vccd1 sky130_fd_sc_hd__tapvpwrvgnd_1
XTAP_55 vssd1 vccd1 sky130_fd_sc_hd__tapvpwrvgnd_1
XFILLER_2_3 vssd1 vssd1 vccd1 vccd1 sky130_fd_sc_hd__decap_12
XFILLER_11_52 vssd1 vssd1 vccd1 vccd1 sky130_fd_sc_hd__decap_4
Xbuffers\[10\]._0_ buffers\[9\]._0_/Y vssd1 vssd1 vccd1 vccd1 buffers\[11\]._0_/A
+ sky130_fd_sc_hd__inv_2
X_102_ _106_/A _106_/B vssd1 vssd1 vccd1 vccd1 _102_/Y sky130_fd_sc_hd__nand2_1
XFILLER_5_87 vssd1 vssd1 vccd1 vccd1 sky130_fd_sc_hd__decap_12
XFILLER_14_41 vssd1 vssd1 vccd1 vccd1 sky130_fd_sc_hd__decap_12
XFILLER_14_96 vssd1 vssd1 vccd1 vccd1 sky130_fd_sc_hd__fill_2
XTAP_67 vssd1 vccd1 sky130_fd_sc_hd__tapvpwrvgnd_1
XTAP_45 vssd1 vccd1 sky130_fd_sc_hd__tapvpwrvgnd_1
XTAP_56 vssd1 vccd1 sky130_fd_sc_hd__tapvpwrvgnd_1
XFILLER_18_106 vssd1 vssd1 vccd1 vccd1 sky130_fd_sc_hd__decap_4
XFILLER_4_7 vssd1 vssd1 vccd1 vccd1 sky130_fd_sc_hd__fill_1
XFILLER_2_66 vssd1 vssd1 vccd1 vccd1 sky130_fd_sc_hd__fill_1
XFILLER_2_33 vssd1 vssd1 vccd1 vccd1 sky130_fd_sc_hd__fill_1
X_101_ _109_/B vssd1 vssd1 vccd1 vccd1 _106_/B sky130_fd_sc_hd__dlymetal6s2s_1
XFILLER_8_98 vssd1 vssd1 vccd1 vccd1 sky130_fd_sc_hd__decap_12
XFILLER_5_66 vssd1 vssd1 vccd1 vccd1 sky130_fd_sc_hd__fill_1
XFILLER_5_99 vssd1 vssd1 vccd1 vccd1 sky130_fd_sc_hd__decap_8
XFILLER_10_3 vssd1 vssd1 vccd1 vccd1 sky130_fd_sc_hd__decap_4
XFILLER_14_53 vssd1 vssd1 vccd1 vccd1 sky130_fd_sc_hd__decap_12
XTAP_68 vssd1 vccd1 sky130_fd_sc_hd__tapvpwrvgnd_1
XTAP_46 vssd1 vccd1 sky130_fd_sc_hd__tapvpwrvgnd_1
XTAP_57 vssd1 vccd1 sky130_fd_sc_hd__tapvpwrvgnd_1
XFILLER_2_45 vssd1 vssd1 vccd1 vccd1 sky130_fd_sc_hd__decap_6
XPHY_30 vssd1 vssd1 vccd1 vccd1 sky130_fd_sc_hd__decap_3
XFILLER_11_43 vssd1 vssd1 vccd1 vccd1 sky130_fd_sc_hd__decap_6
XFILLER_7_106 vssd1 vssd1 vccd1 vccd1 sky130_fd_sc_hd__decap_4
X_100_ _109_/A vssd1 vssd1 vccd1 vccd1 _106_/A sky130_fd_sc_hd__dlymetal6s2s_1
XFILLER_8_66 vssd1 vssd1 vccd1 vccd1 sky130_fd_sc_hd__decap_12
XFILLER_8_88 vssd1 vssd1 vccd1 vccd1 sky130_fd_sc_hd__decap_6
XFILLER_4_109 vssd1 vssd1 vccd1 vccd1 sky130_fd_sc_hd__fill_1
XFILLER_12_7 vssd1 vssd1 vccd1 vccd1 sky130_fd_sc_hd__fill_1
XFILLER_14_65 vssd1 vssd1 vccd1 vccd1 sky130_fd_sc_hd__decap_8
XTAP_47 vssd1 vccd1 sky130_fd_sc_hd__tapvpwrvgnd_1
XTAP_58 vssd1 vccd1 sky130_fd_sc_hd__tapvpwrvgnd_1
XPHY_20 vssd1 vssd1 vccd1 vccd1 sky130_fd_sc_hd__decap_3
XPHY_31 vssd1 vssd1 vccd1 vccd1 sky130_fd_sc_hd__decap_3
XFILLER_11_11 vssd1 vssd1 vccd1 vccd1 sky130_fd_sc_hd__decap_8
XFILLER_8_56 vssd1 vssd1 vccd1 vccd1 sky130_fd_sc_hd__decap_4
XFILLER_8_78 vssd1 vssd1 vccd1 vccd1 sky130_fd_sc_hd__decap_6
XFILLER_17_21 vssd1 vssd1 vccd1 vccd1 sky130_fd_sc_hd__decap_4
XTAP_48 vssd1 vccd1 sky130_fd_sc_hd__tapvpwrvgnd_1
XFILLER_14_11 vssd1 vssd1 vccd1 vccd1 sky130_fd_sc_hd__decap_4
XTAP_59 vssd1 vccd1 sky130_fd_sc_hd__tapvpwrvgnd_1
XFILLER_14_77 vssd1 vssd1 vccd1 vccd1 sky130_fd_sc_hd__decap_6
XFILLER_14_88 vssd1 vssd1 vccd1 vccd1 sky130_fd_sc_hd__decap_8
XPHY_10 vssd1 vssd1 vccd1 vccd1 sky130_fd_sc_hd__decap_3
XPHY_21 vssd1 vssd1 vccd1 vccd1 sky130_fd_sc_hd__decap_3
XPHY_32 vssd1 vssd1 vccd1 vccd1 sky130_fd_sc_hd__decap_3
XFILLER_11_78 vssd1 vssd1 vccd1 vccd1 sky130_fd_sc_hd__decap_4
XFILLER_14_101 vssd1 vssd1 vccd1 vccd1 sky130_fd_sc_hd__decap_8
XFILLER_8_24 vssd1 vssd1 vccd1 vccd1 sky130_fd_sc_hd__decap_4
X_089_ ring_osc_counter_out[3] _089_/B vssd1 vssd1 vccd1 vccd1 _090_/B sky130_fd_sc_hd__nor2_1
XFILLER_17_55 vssd1 vssd1 vccd1 vccd1 sky130_fd_sc_hd__fill_1
XTAP_38 vssd1 vccd1 sky130_fd_sc_hd__tapvpwrvgnd_1
XTAP_49 vssd1 vccd1 sky130_fd_sc_hd__tapvpwrvgnd_1
XPHY_11 vssd1 vssd1 vccd1 vccd1 sky130_fd_sc_hd__decap_3
XPHY_22 vssd1 vssd1 vccd1 vccd1 sky130_fd_sc_hd__decap_3
XPHY_33 vssd1 vssd1 vccd1 vccd1 sky130_fd_sc_hd__decap_3
XFILLER_2_15 vssd1 vssd1 vccd1 vccd1 sky130_fd_sc_hd__decap_12
XFILLER_11_68 vssd1 vssd1 vccd1 vccd1 sky130_fd_sc_hd__fill_1
XFILLER_11_105 vssd1 vssd1 vccd1 vccd1 sky130_fd_sc_hd__decap_4
XFILLER_8_36 vssd1 vssd1 vccd1 vccd1 sky130_fd_sc_hd__decap_4
X_088_ ring_osc_counter_out[0] ring_osc_counter_out[1] ring_osc_counter_out[2] ring_osc_counter_out[3]
+ vssd1 vssd1 vccd1 vccd1 _092_/C sky130_fd_sc_hd__and4_1
XFILLER_10_7 vssd1 vssd1 vccd1 vccd1 sky130_fd_sc_hd__fill_1
XTAP_39 vssd1 vccd1 sky130_fd_sc_hd__tapvpwrvgnd_1
XPHY_12 vssd1 vssd1 vccd1 vccd1 sky130_fd_sc_hd__decap_3
XFILLER_2_38 vssd1 vssd1 vccd1 vccd1 sky130_fd_sc_hd__decap_4
XFILLER_2_27 vssd1 vssd1 vccd1 vccd1 sky130_fd_sc_hd__fill_1
XPHY_23 vssd1 vssd1 vccd1 vccd1 sky130_fd_sc_hd__decap_3
XPHY_34 vssd1 vssd1 vccd1 vccd1 sky130_fd_sc_hd__decap_3
XFILLER_3_81 vssd1 vssd1 vccd1 vccd1 sky130_fd_sc_hd__fill_2
X_087_ _089_/B _087_/B vssd1 vssd1 vccd1 vccd1 _133_/D sky130_fd_sc_hd__nor2_1
XFILLER_17_35 vssd1 vssd1 vccd1 vccd1 sky130_fd_sc_hd__decap_12
XFILLER_0_82 vssd1 vssd1 vccd1 vccd1 sky130_fd_sc_hd__fill_2
X_139_ _142_/CLK _139_/D vssd1 vssd1 vccd1 vccd1 _139_/Q sky130_fd_sc_hd__dfxtp_1
Xbuffers\[20\]._0_ buffers\[20\]._0_/A vssd1 vssd1 vccd1 vccd1 _109_/A sky130_fd_sc_hd__clkinv_2
XPHY_35 vssd1 vssd1 vccd1 vccd1 sky130_fd_sc_hd__decap_3
XPHY_13 vssd1 vssd1 vccd1 vccd1 sky130_fd_sc_hd__decap_3
XFILLER_9_3 vssd1 vssd1 vccd1 vccd1 sky130_fd_sc_hd__decap_4
XPHY_24 vssd1 vssd1 vccd1 vccd1 sky130_fd_sc_hd__decap_3
X_086_ ring_osc_counter_out[0] ring_osc_counter_out[1] ring_osc_counter_out[2] vssd1
+ vssd1 vccd1 vccd1 _087_/B sky130_fd_sc_hd__a21oi_1
XFILLER_12_80 vssd1 vssd1 vccd1 vccd1 sky130_fd_sc_hd__decap_4
XFILLER_17_69 vssd1 vssd1 vccd1 vccd1 sky130_fd_sc_hd__fill_1
XFILLER_17_47 vssd1 vssd1 vccd1 vccd1 sky130_fd_sc_hd__decap_8
X_069_ _075_/A vssd1 vssd1 vccd1 vccd1 _074_/A sky130_fd_sc_hd__buf_2
X_138_ _109_/Y _138_/D _119_/A vssd1 vssd1 vccd1 vccd1 ring_osc_counter_out[7] sky130_fd_sc_hd__dfrtp_4
XFILLER_14_26 vssd1 vssd1 vccd1 vccd1 sky130_fd_sc_hd__fill_2
XFILLER_6_93 vssd1 vssd1 vccd1 vccd1 sky130_fd_sc_hd__decap_4
XPHY_36 vssd1 vssd1 vccd1 vccd1 sky130_fd_sc_hd__decap_3
XPHY_14 vssd1 vssd1 vccd1 vccd1 sky130_fd_sc_hd__decap_3
XPHY_25 vssd1 vssd1 vccd1 vccd1 sky130_fd_sc_hd__decap_3
XFILLER_2_29 vssd1 vssd1 vccd1 vccd1 sky130_fd_sc_hd__decap_4
XFILLER_6_101 vssd1 vssd1 vccd1 vccd1 sky130_fd_sc_hd__decap_8
X_085_ ring_osc_counter_out[0] ring_osc_counter_out[1] ring_osc_counter_out[2] vssd1
+ vssd1 vccd1 vccd1 _089_/B sky130_fd_sc_hd__and3_1
XFILLER_17_15 vssd1 vssd1 vccd1 vccd1 sky130_fd_sc_hd__decap_3
X_068_ _075_/A vssd1 vssd1 vccd1 vccd1 _119_/A sky130_fd_sc_hd__inv_2
X_137_ _108_/Y _137_/D _070_/Y vssd1 vssd1 vccd1 vccd1 ring_osc_counter_out[6] sky130_fd_sc_hd__dfrtp_4
XFILLER_17_3 vssd1 vssd1 vccd1 vccd1 sky130_fd_sc_hd__decap_12
XPHY_37 vssd1 vssd1 vccd1 vccd1 sky130_fd_sc_hd__decap_3
XFILLER_6_61 vssd1 vssd1 vccd1 vccd1 sky130_fd_sc_hd__decap_4
XFILLER_6_72 vssd1 vssd1 vccd1 vccd1 sky130_fd_sc_hd__decap_12
XPHY_15 vssd1 vssd1 vccd1 vccd1 sky130_fd_sc_hd__decap_3
XPHY_26 vssd1 vssd1 vccd1 vccd1 sky130_fd_sc_hd__decap_3
XFILLER_15_81 vssd1 vssd1 vccd1 vccd1 sky130_fd_sc_hd__fill_2
XFILLER_3_73 vssd1 vssd1 vccd1 vccd1 sky130_fd_sc_hd__decap_8
XFILLER_11_109 vssd1 vssd1 vccd1 vccd1 sky130_fd_sc_hd__fill_1
X_084_ ring_osc_counter_out[0] ring_osc_counter_out[1] vssd1 vssd1 vccd1 vccd1 _132_/D
+ sky130_fd_sc_hd__xor2_1
X_136_ _107_/Y _136_/D _071_/Y vssd1 vssd1 vccd1 vccd1 ring_osc_counter_out[5] sky130_fd_sc_hd__dfrtp_4
XFILLER_0_85 vssd1 vssd1 vccd1 vccd1 sky130_fd_sc_hd__decap_12
XFILLER_0_74 vssd1 vssd1 vccd1 vccd1 sky130_fd_sc_hd__decap_8
XFILLER_0_41 vssd1 vssd1 vccd1 vccd1 sky130_fd_sc_hd__decap_12
X_067_ _119_/B _124_/B vssd1 vssd1 vccd1 vccd1 time_count_overflow sky130_fd_sc_hd__nor2_4